@<TRIPOS>MOLECULE
title: molecule 1
16   16    1
SMALL
USER_CHARGES


@<TRIPOS>ATOM
      1 O1         -0.0216   -0.3468    1.0334 O.3       1 UNK        -0.6333 
      2 C2          0.5687   -0.9538   -0.0956 C.3       1 UNK         0.1972 
      3 C3          2.0823   -0.9829   -0.0135 C.ar      1 UNK        -0.0779 
      4 C4          2.7585   -2.1903    0.2621 C.ar      1 UNK        -0.1150 
      5 C5          2.8223    0.2018   -0.2120 C.ar      1 UNK        -0.1150 
      6 C6          4.1652   -2.2123    0.3367 C.ar      1 UNK        -0.1150 
      7 C7          4.2288    0.1793   -0.1372 C.ar      1 UNK        -0.1150 
      8 C8          4.9005   -1.0278    0.1368 C.ar      1 UNK        -0.1150 
      9 H9         -0.9602   -0.3559    0.9240 H         1 UNK         0.4180 
     10 H10         0.1779   -1.9668   -0.1973 H         1 UNK         0.0480 
     11 H11         0.2675   -0.4072   -0.9898 H         1 UNK         0.0480 
     12 H12         2.2017   -3.1026    0.4185 H         1 UNK         0.1150 
     13 H13         2.3111    1.1304   -0.4203 H         1 UNK         0.1150 
     14 H14         4.6800   -3.1380    0.5481 H         1 UNK         0.1150 
     15 H15         4.7920    1.0883   -0.2893 H         1 UNK         0.1150 
     16 H16         5.9788   -1.0451    0.1945 H         1 UNK         0.1150 
@<TRIPOS>BOND
     1    1    2 1    
     2    1    9 1    
     3    2    3 1    
     4    2   10 1    
     5    2   11 1    
     6    3    4 ar   
     7    3    5 ar   
     8    4    6 ar   
     9    4   12 1    
    10    5    7 ar   
    11    5   13 1    
    12    6    8 ar   
    13    6   14 1    
    14    7    8 ar   
    15    7   15 1    
    16    8   16 1    
@<TRIPOS>SUBSTRUCTURE
     1 UNK         1 GROUP             0       ****    0 ROOT    
