@<TRIPOS>MOLECULE
title: molecule 1
16   16    1
SMALL
USER_CHARGES


@<TRIPOS>ATOM
      1 O1         -0.0403    0.0532    0.1311 O.co2     1 UNK        -0.3700 
      2 N2          0.5418   -1.0268    0.1291 N.pl3     1 UNK         0.6500 
      3 C3          2.0182   -1.0253    0.1109 C.ar      1 UNK         0.0900 
      4 O4         -0.0380   -2.1080    0.1413 O.co2     1 UNK        -0.3700 
      5 C5          2.7376    0.1930    0.0963 C.ar      1 UNK        -0.1150 
      6 C6          2.7402   -2.2423    0.1078 C.ar      1 UNK        -0.1150 
      7 C7          4.1460    0.1946    0.0790 C.ar      1 UNK        -0.1150 
      8 C8          4.1486   -2.2410    0.0905 C.ar      1 UNK        -0.1150 
      9 C9          4.8539   -1.0225    0.0761 C.ar      1 UNK         0.1800 
     10 N10         6.2474   -1.0211    0.0589 N.pl3     1 UNK        -0.9000 
     11 H11         2.2162    1.1390    0.0983 H         1 UNK         0.1150 
     12 H12         2.2208   -3.1893    0.1186 H         1 UNK         0.1150 
     13 H13         4.6784    1.1346    0.0680 H         1 UNK         0.1150 
     14 H14         4.6830   -3.1800    0.0883 H         1 UNK         0.1150 
     15 H15         6.7770   -1.8810    0.0565 H         1 UNK         0.3600 
     16 H16         6.7752   -0.1601    0.0484 H         1 UNK         0.3600 
@<TRIPOS>BOND
     1    1    2 2    
     2    2    3 1    
     3    2    4 1    
     4    3    5 ar   
     5    3    6 ar   
     6    5    7 ar   
     7    5   11 1    
     8    6    8 ar   
     9    6   12 1    
    10    7    9 ar   
    11    7   13 1    
    12    8    9 ar   
    13    8   14 1    
    14    9   10 1    
    15   10   15 1    
    16   10   16 1    
@<TRIPOS>SUBSTRUCTURE
     1 UNK         1 GROUP             0       ****    0 ROOT    
