@<TRIPOS>MOLECULE
title: molecule 1
16   16    1
SMALL
USER_CHARGES


@<TRIPOS>ATOM
      1 C1         -0.3466   -0.0863    0.1011 C.ar      1 UNK         0.0850 
      2 C2          0.5770   -1.1524    0.1018 C.ar      1 UNK        -0.1150 
      3 C3          0.1456    1.2437    0.0851 C.ar      1 UNK        -0.1150 
      4 O4         -1.6846   -0.4174    0.1164 O.3       1 UNK        -0.2850 
      5 C5          1.9634   -0.9059    0.0869 C.ar      1 UNK        -0.1150 
      6 C6          1.5325    1.4906    0.0702 C.ar      1 UNK        -0.1150 
      7 C7         -2.6344    0.6384    0.1160 C.3       1 UNK         0.1100 
      8 C8          2.4423    0.4170    0.0710 C.ar      1 UNK        -0.1150 
      9 H9          0.2174   -2.1709    0.1139 H         1 UNK         0.1150 
     10 H10        -0.5206    2.0928    0.0840 H         1 UNK         0.1150 
     11 H11         2.6588   -1.7323    0.0876 H         1 UNK         0.1150 
     12 H12         1.8987    2.5066    0.0580 H         1 UNK         0.1150 
     13 H13        -3.6397    0.2177    0.1289 H         1 UNK         0.0300 
     14 H14        -2.5299    1.2692    0.9999 H         1 UNK         0.0300 
     15 H15        -2.5464    1.2538   -0.7803 H         1 UNK         0.0300 
     16 H16         3.5054    0.6079    0.0596 H         1 UNK         0.1150 
@<TRIPOS>BOND
     1    1    2 ar   
     2    1    3 ar   
     3    1    4 1    
     4    2    5 ar   
     5    2    9 1    
     6    3    6 ar   
     7    3   10 1    
     8    4    7 1    
     9    5    8 ar   
    10    5   11 1    
    11    6    8 ar   
    12    6   12 1    
    13    7   13 1    
    14    7   14 1    
    15    7   15 1    
    16    8   16 1    
@<TRIPOS>SUBSTRUCTURE
     1 UNK         1 GROUP             0       ****    0 ROOT    
