@<TRIPOS>MOLECULE
title: molecule 1
19   19    1
SMALL
USER_CHARGES


@<TRIPOS>ATOM
      1 O1          0.1683   -2.2090    0.4177 O.3       1 UNK        -0.3836 
      2 N2          0.7552   -0.9128    0.3170 N.2       1 UNK        -0.3962 
      3 C3          1.9644   -0.9929   -0.0731 C.2       1 UNK         0.3175 
      4 C4          2.7887    0.2725   -0.2696 C.3       1 UNK        -0.0839 
      5 C5          2.7503   -2.2707   -0.4015 C.3       1 UNK        -0.0839 
      6 C6          4.1380    0.2059    0.4692 C.3       1 UNK        -0.1200 
      7 C7          4.1043   -2.3152    0.3319 C.3       1 UNK        -0.1200 
      8 C8          4.9371   -1.0481    0.0836 C.3       1 UNK        -0.1200 
      9 H9         -0.7063   -2.0033    0.7116 H         1 UNK         0.3901 
     10 H10         2.2242    1.1413    0.0723 H         1 UNK         0.0600 
     11 H11         2.9571    0.4134   -1.3378 H         1 UNK         0.0600 
     12 H12         2.9171   -2.2991   -1.4787 H         1 UNK         0.0600 
     13 H13         2.1943   -3.1755   -0.1598 H         1 UNK         0.0600 
     14 H14         3.9649    0.2099    1.5464 H         1 UNK         0.0600 
     15 H15         4.7232    1.0995    0.2501 H         1 UNK         0.0600 
     16 H16         4.6664   -3.1940    0.0146 H         1 UNK         0.0600 
     17 H17         3.9333   -2.4326    1.4030 H         1 UNK         0.0600 
     18 H18         5.8648   -1.0916    0.6550 H         1 UNK         0.0600 
     19 H19         5.2212   -0.9946   -0.9682 H         1 UNK         0.0600 
@<TRIPOS>BOND
     1    1    2 1    
     2    1    9 1    
     3    2    3 2    
     4    3    4 1    
     5    3    5 1    
     6    4    6 1    
     7    4   10 1    
     8    4   11 1    
     9    5    7 1    
    10    5   12 1    
    11    5   13 1    
    12    6    8 1    
    13    6   14 1    
    14    6   15 1    
    15    7    8 1    
    16    7   16 1    
    17    7   17 1    
    18    8   18 1    
    19    8   19 1    
@<TRIPOS>SUBSTRUCTURE
     1 UNK         1 GROUP             0       ****    0 ROOT    
