@<TRIPOS>MOLECULE
title: molecule 1
14   14    1
SMALL
USER_CHARGES


@<TRIPOS>ATOM
      1 O1         -0.0602    0.0498    0.1282 O.co2     1 UNK        -0.3700 
      2 N2          0.5245   -1.0288    0.1252 N.pl3     1 UNK         0.6500 
      3 C3          2.0010   -1.0236    0.1101 C.ar      1 UNK         0.0900 
      4 O4         -0.0525   -2.1114    0.1341 O.co2     1 UNK        -0.3700 
      5 C5          2.7174    0.1969    0.0994 C.ar      1 UNK        -0.1150 
      6 C6          2.7261   -2.2390    0.1059 C.ar      1 UNK        -0.1150 
      7 C7          4.1259    0.2018    0.0849 C.ar      1 UNK        -0.1150 
      8 C8          4.1346   -2.2338    0.0915 C.ar      1 UNK        -0.1150 
      9 C9          4.8357   -1.0135    0.0810 C.ar      1 UNK         0.1800 
     10 Cl10        6.5608   -1.0074    0.0633 Cl        1 UNK        -0.1800 
     11 H11         2.1936    1.1417    0.1022 H         1 UNK         0.1150 
     12 H12         2.2090   -3.1874    0.1138 H         1 UNK         0.1150 
     13 H13         4.6608    1.1402    0.0769 H         1 UNK         0.1150 
     14 H14         4.6761   -3.1684    0.0885 H         1 UNK         0.1150 
@<TRIPOS>BOND
     1    1    2 2    
     2    2    3 1    
     3    2    4 1    
     4    3    5 ar   
     5    3    6 ar   
     6    5    7 ar   
     7    5   11 1    
     8    6    8 ar   
     9    6   12 1    
    10    7    9 ar   
    11    7   13 1    
    12    8    9 ar   
    13    8   14 1    
    14    9   10 1    
@<TRIPOS>SUBSTRUCTURE
     1 UNK         1 GROUP             0       ****    0 ROOT    
