@<TRIPOS>MOLECULE
title: molecule 1
13   13    1
SMALL
USER_CHARGES


@<TRIPOS>ATOM
      1 N1          0.0807   -0.9701    0.1211 N.1       1 UNK        -0.4300 
      2 C2          1.2376   -0.9869    0.1138 C.1       1 UNK         0.3950 
      3 C3          2.6909   -1.0080    0.1045 C.ar      1 UNK         0.0350 
      4 C4          3.4156    0.2022    0.1072 C.ar      1 UNK        -0.1150 
      5 C5          3.3800   -2.2388    0.0928 C.ar      1 UNK        -0.1150 
      6 C6          4.8243    0.1808    0.0982 C.ar      1 UNK        -0.1150 
      7 C7          4.7888   -2.2584    0.0838 C.ar      1 UNK        -0.1150 
      8 C8          5.5108   -1.0490    0.0865 C.ar      1 UNK        -0.1150 
      9 H9          2.8972    1.1504    0.1161 H         1 UNK         0.1150 
     10 H10         2.8341   -3.1716    0.0907 H         1 UNK         0.1150 
     11 H11         5.3783    1.1081    0.1003 H         1 UNK         0.1150 
     12 H12         5.3154   -3.2014    0.0749 H         1 UNK         0.1150 
     13 H13         6.5908   -1.0648    0.0797 H         1 UNK         0.1150 
@<TRIPOS>BOND
     1    1    2 3    
     2    2    3 1    
     3    3    4 ar   
     4    3    5 ar   
     5    4    6 ar   
     6    4    9 1    
     7    5    7 ar   
     8    5   10 1    
     9    6    8 ar   
    10    6   11 1    
    11    7    8 ar   
    12    7   12 1    
    13    8   13 1    
@<TRIPOS>SUBSTRUCTURE
     1 UNK         1 GROUP             0       ****    0 ROOT    
