@<TRIPOS>MOLECULE
title: molecule 1
15   15    1
SMALL
USER_CHARGES


@<TRIPOS>ATOM
      1 Cl1        -0.1180   -0.7955    1.5847 Cl        1 UNK        -0.2000 
      2 C2          0.5889   -1.1171   -0.0187 C.3       1 UNK        -0.0654 
      3 C3          2.1022   -1.0664    0.0374 C.ar      1 UNK         0.0594 
      4 C4          2.8406   -2.2369    0.3109 C.ar      1 UNK        -0.1150 
      5 C5          2.7794    0.1491   -0.1947 C.ar      1 UNK        -0.1150 
      6 C6          4.2478   -2.1908    0.3565 C.ar      1 UNK        -0.1150 
      7 C7          4.1866    0.1946   -0.1489 C.ar      1 UNK        -0.1150 
      8 C8          4.9210   -0.9752    0.1268 C.ar      1 UNK        -0.1150 
      9 H9          0.1999   -0.3725   -0.7138 H         1 UNK         0.1030 
     10 H10         0.2441   -2.0977   -0.3482 H         1 UNK         0.1030 
     11 H11         2.3298   -3.1719    0.4888 H         1 UNK         0.1150 
     12 H12         2.2215    1.0497   -0.4057 H         1 UNK         0.1150 
     13 H13         4.8107   -3.0881    0.5679 H         1 UNK         0.1150 
     14 H14         4.7026    1.1270   -0.3253 H         1 UNK         0.1150 
     15 H15         6.0000   -0.9401    0.1620 H         1 UNK         0.1150 
@<TRIPOS>BOND
     1    1    2 1    
     2    2    3 1    
     3    2    9 1    
     4    2   10 1    
     5    3    4 ar   
     6    3    5 ar   
     7    4    6 ar   
     8    4   11 1    
     9    5    7 ar   
    10    5   12 1    
    11    6    8 ar   
    12    6   13 1    
    13    7    8 ar   
    14    7   14 1    
    15    8   15 1    
@<TRIPOS>SUBSTRUCTURE
     1 UNK         1 GROUP             0       ****    0 ROOT    
