@<TRIPOS>MOLECULE
title: molecule 1
21   21    1
SMALL
USER_CHARGES


@<TRIPOS>ATOM
      1 C1          4.7714   -0.9102    0.1041 C.ar      1 UNK         0.0850 
      2 C2          4.1208   -2.1596    0.1142 C.ar      1 UNK        -0.1150 
      3 C3          3.9824    0.2662    0.0873 C.ar      1 UNK        -0.1150 
      4 O4          6.1498   -0.9216    0.1114 O.3       1 UNK        -0.2850 
      5 C5          2.7153   -2.2433    0.1078 C.ar      1 UNK        -0.1150 
      6 C6          2.5763    0.1835    0.0809 C.ar      1 UNK        -0.1150 
      7 C7          6.8334    0.3241    0.1015 C.3       1 UNK         0.1400 
      8 C8          1.9255   -1.0713    0.0911 C.ar      1 UNK         0.0900 
      9 C9          8.3401    0.0560    0.1123 C.3       1 UNK        -0.1800 
     10 N10         0.4515   -1.1560    0.0843 N.pl3     1 UNK         0.6500 
     11 O11        -0.1904   -0.1105    0.0697 O.co2     1 UNK        -0.3700 
     12 O12        -0.0666   -2.2681    0.0936 O.co2     1 UNK        -0.3700 
     13 H13         4.7074   -3.0666    0.1271 H         1 UNK         0.1150 
     14 H14         4.4318    1.2475    0.0791 H         1 UNK         0.1150 
     15 H15         2.2516   -3.2188    0.1160 H         1 UNK         0.1150 
     16 H16         2.0024    1.0986    0.0680 H         1 UNK         0.1150 
     17 H17         6.5709    0.8951   -0.7904 H         1 UNK         0.0300 
     18 H18         6.5617    0.9142    0.9781 H         1 UNK         0.0300 
     19 H19         8.9021    0.9901    0.1051 H         1 UNK         0.0600 
     20 H20         8.6317   -0.5033    1.0015 H         1 UNK         0.0600 
     21 H21         8.6408   -0.5223   -0.7617 H         1 UNK         0.0600 
@<TRIPOS>BOND
     1    1    2 ar   
     2    1    3 ar   
     3    1    4 1    
     4    2    5 ar   
     5    2   13 1    
     6    3    6 ar   
     7    3   14 1    
     8    4    7 1    
     9    5    8 ar   
    10    5   15 1    
    11    6    8 ar   
    12    6   16 1    
    13    7    9 1    
    14    7   17 1    
    15    7   18 1    
    16    8   10 1    
    17    9   19 1    
    18    9   20 1    
    19    9   21 1    
    20   10   11 1    
    21   10   12 2    
@<TRIPOS>SUBSTRUCTURE
     1 UNK         1 GROUP             0       ****    0 ROOT    
