@<TRIPOS>MOLECULE
title: molecule 1
20   19    1
SMALL
USER_CHARGES


@<TRIPOS>ATOM
      1 C1          4.2352    0.2804    0.1950 C.1       1 UNK         0.0000 
      2 C2          2.9082   -0.3506    0.2814 C.3       1 UNK        -0.1200 
      3 C3          5.3305    0.8154    0.1207 C.1       1 UNK         0.0000 
      4 C4          1.7513    0.6282    0.0275 C.3       1 UNK        -0.1200 
      5 C5          6.6547    1.4474    0.0283 C.3       1 UNK         0.1450 
      6 C6          0.3778   -0.0514    0.1228 C.3       1 UNK        -0.1200 
      7 O7          6.5615    2.8261   -0.2562 O.3       1 UNK        -0.6830 
      8 C8         -0.7793    0.9214   -0.1300 C.3       1 UNK        -0.1800 
      9 H9          2.8826   -1.1660   -0.4421 H         1 UNK         0.0600 
     10 H10         2.8188   -0.7966    1.2724 H         1 UNK         0.0600 
     11 H11         1.7985    1.4468    0.7475 H         1 UNK         0.0600 
     12 H12         1.8621    1.0789   -0.9601 H         1 UNK         0.0600 
     13 H13         7.1796    1.3009    0.9725 H         1 UNK         0.0600 
     14 H14         7.2252    0.9468   -0.7543 H         1 UNK         0.0600 
     15 H15         0.3232   -0.8688   -0.5972 H         1 UNK         0.0600 
     16 H16         0.2595   -0.5010    1.1094 H         1 UNK         0.0600 
     17 H17         7.0468    3.0048   -1.0473 H         1 UNK         0.4180 
     18 H18        -1.7395    0.4105   -0.0557 H         1 UNK         0.0600 
     19 H19        -0.7774    1.7334    0.5976 H         1 UNK         0.0600 
     20 H20        -0.7133    1.3620   -1.1252 H         1 UNK         0.0600 
@<TRIPOS>BOND
     1    1    2 1    
     2    1    3 3    
     3    2    4 1    
     4    2    9 1    
     5    2   10 1    
     6    3    5 1    
     7    4    6 1    
     8    4   11 1    
     9    4   12 1    
    10    5    7 1    
    11    5   13 1    
    12    5   14 1    
    13    6    8 1    
    14    6   15 1    
    15    6   16 1    
    16    7   17 1    
    17    8   18 1    
    18    8   19 1    
    19    8   20 1    
@<TRIPOS>SUBSTRUCTURE
     1 UNK         1 GROUP             0       ****    0 ROOT    
