@<TRIPOS>MOLECULE
title: molecule 1
9   9    1
SMALL
USER_CHARGES


@<TRIPOS>ATOM
      1 Br1         3.8070   -0.2708    0.2215 Br        1 UNK        -0.2000 
      2 C2          2.0004    0.3215    0.1459 C.2       1 UNK         0.1363 
      3 S3          0.6680   -0.7922    0.1220 S.3       1 UNK         0.0328 
      4 C4          1.6213    1.6344    0.1057 C.2       1 UNK        -0.0738 
      5 C5         -0.4486    0.5504    0.0552 C.2       1 UNK        -0.3255 
      6 C6          0.2004    1.7619    0.0532 C.2       1 UNK        -0.0738 
      7 H7          2.2905    2.4820    0.1118 H         1 UNK         0.1211 
      8 H8         -1.5122    0.3654    0.0217 H         1 UNK         0.2618 
      9 H9         -0.2904    2.7234    0.0162 H         1 UNK         0.1211 
@<TRIPOS>BOND
     1    1    2 1    
     2    2    3 1    
     3    2    4 2    
     4    3    5 1    
     5    4    6 1    
     6    4    7 1    
     7    5    6 2    
     8    5    8 1    
     9    6    9 1    
@<TRIPOS>SUBSTRUCTURE
     1 UNK         1 GROUP             0       ****    0 ROOT    
