@<TRIPOS>MOLECULE
title: molecule 1
21   22    1
SMALL
USER_CHARGES


@<TRIPOS>ATOM
      1 C1          3.3332    0.9770    0.0905 C.ar      1 UNK         0.0000 
      2 C2          4.0395    2.1448    0.4628 C.ar      1 UNK        -0.1150 
      3 C3          4.0803   -0.1741   -0.2531 C.ar      1 UNK        -0.1150 
      4 C4          1.8562    0.9599    0.0612 C.ar      1 UNK        -0.2920 
      5 C5          5.4475    2.1633    0.4918 C.ar      1 UNK        -0.1150 
      6 C6          5.4884   -0.1603   -0.2264 C.ar      1 UNK        -0.1150 
      7 C7          1.1202   -0.1865    0.4394 C.ar      1 UNK         0.2270 
      8 C8          1.1087    2.0898   -0.3469 C.ar      1 UNK         0.4730 
      9 C9          6.1742    1.0096    0.1467 C.ar      1 UNK        -0.1150 
     10 C10        -0.2865   -0.1582    0.3960 C.ar      1 UNK        -0.4470 
     11 N11        -0.2401    2.1310   -0.3938 N.ar      1 UNK        -0.6780 
     12 C12        -0.9186    1.0249   -0.0278 C.ar      1 UNK         0.4730 
     13 H13         3.5028    3.0403    0.7397 H         1 UNK         0.1150 
     14 H14         3.5756   -1.0814   -0.5507 H         1 UNK         0.1150 
     15 H15         5.9695    3.0636    0.7808 H         1 UNK         0.1150 
     16 H16         6.0420   -1.0482   -0.4941 H         1 UNK         0.1150 
     17 H17         1.6242   -1.0830    0.7691 H         1 UNK         0.0650 
     18 H18         1.6076    2.9960   -0.6575 H         1 UNK         0.0120 
     19 H19         7.2541    1.0220    0.1680 H         1 UNK         0.1150 
     20 H20        -0.8669   -1.0226    0.6828 H         1 UNK         0.1550 
     21 H21        -1.9960    1.0846   -0.0736 H         1 UNK         0.0120 
@<TRIPOS>BOND
     1    1    2 ar   
     2    1    3 ar   
     3    1    4 1    
     4    2    5 ar   
     5    2   13 1    
     6    3    6 ar   
     7    3   14 1    
     8    4    7 ar   
     9    4    8 ar   
    10    5    9 ar   
    11    5   15 1    
    12    6    9 ar   
    13    6   16 1    
    14    7   10 ar   
    15    7   17 1    
    16    8   11 ar   
    17    8   18 1    
    18    9   19 1    
    19   10   12 ar   
    20   10   20 1    
    21   11   12 ar   
    22   12   21 1    
@<TRIPOS>SUBSTRUCTURE
     1 UNK         1 GROUP             0       ****    0 ROOT    
