@<TRIPOS>MOLECULE
title: molecule 1
22   23    1
SMALL
USER_CHARGES


@<TRIPOS>ATOM
      1 O1          0.0683   -0.1439    3.7100 O.2       1 UNK        -0.4300 
      2 C2          0.9715    0.6780    3.8458 C.2       1 UNK         0.5100 
      3 O3          2.2834    0.4414    3.7742 O.3       1 UNK        -0.3300 
      4 C4          0.7395    2.1546    4.1147 C.3       1 UNK        -0.1200 
      5 C5          3.0806    1.5880    4.0309 C.3       1 UNK         0.2618 
      6 C6          2.1069    2.7539    3.8178 C.3       1 UNK        -0.1200 
      7 C7          4.3195    1.6764    3.1552 C.ar      1 UNK        -0.0418 
      8 C8          5.5054    2.2316    3.6798 C.ar      1 UNK        -0.1150 
      9 C9          4.2901    1.2393    1.8125 C.ar      1 UNK        -0.1150 
     10 C10         6.6565    2.3363    2.8747 C.ar      1 UNK        -0.1150 
     11 C11         5.4413    1.3443    1.0078 C.ar      1 UNK        -0.1150 
     12 C12         6.6251    1.8914    1.5390 C.ar      1 UNK        -0.1150 
     13 H13         0.4612    2.2917    5.1598 H         1 UNK         0.0600 
     14 H14        -0.0440    2.5673    3.4789 H         1 UNK         0.0600 
     15 H15         3.3827    1.5483    5.0784 H         1 UNK         0.0300 
     16 H16         2.3464    3.6140    4.4434 H         1 UNK         0.0600 
     17 H17         2.1242    3.0847    2.7779 H         1 UNK         0.0600 
     18 H18         5.5356    2.5786    4.7024 H         1 UNK         0.1150 
     19 H19         3.3849    0.8235    1.3946 H         1 UNK         0.1150 
     20 H20         7.5632    2.7594    3.2815 H         1 UNK         0.1150 
     21 H21         5.4153    1.0065   -0.0178 H         1 UNK         0.1150 
     22 H22         7.5076    1.9723    0.9215 H         1 UNK         0.1150 
@<TRIPOS>BOND
     1    1    2 2    
     2    2    3 1    
     3    2    4 1    
     4    3    5 1    
     5    4    6 1    
     6    4   13 1    
     7    4   14 1    
     8    5    6 1    
     9    5    7 1    
    10    5   15 1    
    11    6   16 1    
    12    6   17 1    
    13    7    8 ar   
    14    7    9 ar   
    15    8   10 ar   
    16    8   18 1    
    17    9   11 ar   
    18    9   19 1    
    19   10   12 ar   
    20   10   20 1    
    21   11   12 ar   
    22   11   21 1    
    23   12   22 1    
@<TRIPOS>SUBSTRUCTURE
     1 UNK         1 GROUP             0       ****    0 ROOT    
