@<TRIPOS>MOLECULE
title: molecule 1
21   21    1
SMALL
USER_CHARGES


@<TRIPOS>ATOM
      1 C1          1.7995    0.2865   -0.0000 C.2       1 UNK         0.5100 
      2 C2          0.7849   -0.8352    0.2408 C.3       1 UNK        -0.0050 
      3 O3          1.4621    1.4569   -0.1897 O.2       1 UNK        -0.4300 
      4 O4          3.0622   -0.1671    0.0234 O.3       1 UNK        -0.3300 
      5 C5         -0.6588   -0.3632    0.2222 C.ar      1 UNK        -0.1150 
      6 C6          4.1332    0.7380   -0.1821 C.3       1 UNK         0.1600 
      7 C7         -1.3863   -0.3560   -0.9867 C.ar      1 UNK        -0.1150 
      8 C8         -1.2802    0.0637    1.4148 C.ar      1 UNK        -0.1150 
      9 C9         -2.7258    0.0796   -1.0031 C.ar      1 UNK        -0.1150 
     10 C10        -2.6197    0.4991    1.3974 C.ar      1 UNK        -0.1150 
     11 C11        -3.3425    0.5073    0.1887 C.ar      1 UNK        -0.1150 
     12 H12         0.9208   -1.6035   -0.5207 H         1 UNK         0.0600 
     13 H13         0.9970   -1.3023    1.2029 H         1 UNK         0.0600 
     14 H14         5.0830    0.2059   -0.1311 H         1 UNK         0.0300 
     15 H15         4.0602    1.2111   -1.1622 H         1 UNK         0.0300 
     16 H16         4.1373    1.5160    0.5823 H         1 UNK         0.0300 
     17 H17        -0.9180   -0.6816   -1.9040 H         1 UNK         0.1150 
     18 H18        -0.7302    0.0609    2.3445 H         1 UNK         0.1150 
     19 H19        -3.2799    0.0859   -1.9302 H         1 UNK         0.1150 
     20 H20        -3.0924    0.8272    2.3114 H         1 UNK         0.1150 
     21 H21        -4.3695    0.8416    0.1756 H         1 UNK         0.1150 
@<TRIPOS>BOND
     1    1    2 1    
     2    1    3 2    
     3    1    4 1    
     4    2    5 1    
     5    2   12 1    
     6    2   13 1    
     7    4    6 1    
     8    5    7 ar   
     9    5    8 ar   
    10    6   14 1    
    11    6   15 1    
    12    6   16 1    
    13    7    9 ar   
    14    7   17 1    
    15    8   10 ar   
    16    8   18 1    
    17    9   11 ar   
    18    9   19 1    
    19   10   11 ar   
    20   10   20 1    
    21   11   21 1    
@<TRIPOS>SUBSTRUCTURE
     1 UNK         1 GROUP             0       ****    0 ROOT    
