@<TRIPOS>MOLECULE
title: molecule 1
25   26    1
SMALL
USER_CHARGES


@<TRIPOS>ATOM
      1 O1         -0.0444   -2.6776    0.6590 O.3       1 UNK        -0.5850 
      2 C2          1.0404   -1.9499    0.2642 C.ar      1 UNK         0.1500 
      3 C3          0.8674   -0.6362   -0.2118 C.ar      1 UNK        -0.1150 
      4 C4          2.3318   -2.5106    0.3303 C.ar      1 UNK        -0.1150 
      5 C5          1.9846    0.1126   -0.6271 C.ar      1 UNK        -0.1150 
      6 C6          3.4590   -1.7607   -0.0669 C.ar      1 UNK         0.2000 
      7 C7          3.2748   -0.4483   -0.5600 C.ar      1 UNK        -0.1150 
      8 N8          4.7220   -2.3675   -0.0003 N.pl3     1 UNK        -0.7800 
      9 C9          5.9801   -1.7621    0.1334 C.ar      1 UNK         0.2000 
     10 C10         7.1130   -2.4567   -0.3400 C.ar      1 UNK        -0.1150 
     11 C11         6.1550   -0.5089    0.7650 C.ar      1 UNK        -0.1150 
     12 C12         8.3996   -1.8977   -0.2119 C.ar      1 UNK        -0.1150 
     13 C13         7.4414    0.0504    0.8940 C.ar      1 UNK        -0.1150 
     14 C14         8.5641   -0.6420    0.4024 C.ar      1 UNK        -0.1150 
     15 H15         0.1779   -3.5443    0.9626 H         1 UNK         0.4350 
     16 H16        -0.1212   -0.2040   -0.2651 H         1 UNK         0.1150 
     17 H17         2.4589   -3.5198    0.6947 H         1 UNK         0.1150 
     18 H18         1.8517    1.1163   -1.0029 H         1 UNK         0.1150 
     19 H19         4.1157    0.1353   -0.9038 H         1 UNK         0.1150 
     20 H20         4.7269   -3.3756   -0.0570 H         1 UNK         0.3800 
     21 H21         6.9998   -3.4220   -0.8117 H         1 UNK         0.1150 
     22 H22         5.3099    0.0287    1.1682 H         1 UNK         0.1150 
     23 H23         9.2604   -2.4337   -0.5838 H         1 UNK         0.1150 
     24 H24         7.5668    1.0088    1.3758 H         1 UNK         0.1150 
     25 H25         9.5506   -0.2135    0.5024 H         1 UNK         0.1150 
@<TRIPOS>BOND
     1    1    2 1    
     2    1   15 1    
     3    2    3 ar   
     4    2    4 ar   
     5    3    5 ar   
     6    3   16 1    
     7    4    6 ar   
     8    4   17 1    
     9    5    7 ar   
    10    5   18 1    
    11    6    7 ar   
    12    6    8 1    
    13    7   19 1    
    14    8    9 1    
    15    8   20 1    
    16    9   10 ar   
    17    9   11 ar   
    18   10   12 ar   
    19   10   21 1    
    20   11   13 ar   
    21   11   22 1    
    22   12   14 ar   
    23   12   23 1    
    24   13   14 ar   
    25   13   24 1    
    26   14   25 1    
@<TRIPOS>SUBSTRUCTURE
     1 UNK         1 GROUP             0       ****    0 ROOT    
