@<TRIPOS>MOLECULE
title: molecule 1
38   38    1
SMALL
USER_CHARGES


@<TRIPOS>ATOM
      1 O1         -2.2606    2.0805    0.4579 O.3       1 UNK        -0.5850 
      2 C2         -1.0841    1.4029    0.3039 C.ar      1 UNK         0.1500 
      3 C3         -1.0180   -0.0144    0.1344 C.ar      1 UNK        -0.1150 
      4 C4          0.1039    2.1685    0.3318 C.ar      1 UNK         0.1500 
      5 C5         -2.2354   -0.9817    0.0716 C.3       1 UNK         0.1150 
      6 C6          0.2686   -0.6017    0.0189 C.ar      1 UNK        -0.1150 
      7 O7          0.0628    3.5294    0.4571 O.3       1 UNK        -0.5850 
      8 C8          1.3584    1.5492    0.2194 C.ar      1 UNK        -0.1150 
      9 C9         -2.2203   -1.7385   -1.2761 C.3       1 UNK        -0.1800 
     10 C10        -2.1374   -2.0033    1.2269 C.3       1 UNK        -0.1800 
     11 C11        -3.6320   -0.3289    0.1842 C.3       1 UNK        -0.1800 
     12 C12         1.4642    0.1532    0.0622 C.ar      1 UNK        -0.1150 
     13 C13         2.8589   -0.4918   -0.0603 C.3       1 UNK         0.1150 
     14 C14         3.5872    0.0812   -1.2938 C.3       1 UNK        -0.1800 
     15 C15         3.6842   -0.1848    1.2068 C.3       1 UNK        -0.1800 
     16 C16         2.8068   -2.0282   -0.2213 C.3       1 UNK        -0.1800 
     17 H17        -2.1560    2.9503    0.8078 H         1 UNK         0.4350 
     18 H18         0.3255   -1.6699   -0.1033 H         1 UNK         0.1150 
     19 H19        -0.7823    3.9069    0.2741 H         1 UNK         0.4350 
     20 H20         2.2462    2.1631    0.2485 H         1 UNK         0.1150 
     21 H21        -3.0734   -2.4123   -1.3639 H         1 UNK         0.0600 
     22 H22        -2.2666   -1.0439   -2.1157 H         1 UNK         0.0600 
     23 H23        -1.3278   -2.3497   -1.4068 H         1 UNK         0.0600 
     24 H24        -2.9857   -2.6887    1.2252 H         1 UNK         0.0600 
     25 H25        -1.2397   -2.6182    1.1690 H         1 UNK         0.0600 
     26 H26        -2.1271   -1.5003    2.1945 H         1 UNK         0.0600 
     27 H27        -4.4231   -1.0769    0.1190 H         1 UNK         0.0600 
     28 H28        -3.7689    0.1781    1.1398 H         1 UNK         0.0600 
     29 H29        -3.8141    0.3831   -0.6214 H         1 UNK         0.0600 
     30 H30         4.5715   -0.3713   -1.4194 H         1 UNK         0.0600 
     31 H31         3.0218   -0.1069   -2.2072 H         1 UNK         0.0600 
     32 H32         3.7395    1.1579   -1.2187 H         1 UNK         0.0600 
     33 H33         4.6712   -0.6462    1.1591 H         1 UNK         0.0600 
     34 H34         3.8399    0.8848    1.3479 H         1 UNK         0.0600 
     35 H35         3.1885   -0.5647    2.1009 H         1 UNK         0.0600 
     36 H36         3.8091   -2.4506   -0.3027 H         1 UNK         0.0600 
     37 H37         2.3296   -2.5080    0.6341 H         1 UNK         0.0600 
     38 H38         2.2658   -2.3220   -1.1217 H         1 UNK         0.0600 
@<TRIPOS>BOND
     1    1    2 1    
     2    1   17 1    
     3    2    3 ar   
     4    2    4 ar   
     5    3    5 1    
     6    3    6 ar   
     7    4    7 1    
     8    4    8 ar   
     9    5    9 1    
    10    5   10 1    
    11    5   11 1    
    12    6   12 ar   
    13    6   18 1    
    14    7   19 1    
    15    8   12 ar   
    16    8   20 1    
    17    9   21 1    
    18    9   22 1    
    19    9   23 1    
    20   10   24 1    
    21   10   25 1    
    22   10   26 1    
    23   11   27 1    
    24   11   28 1    
    25   11   29 1    
    26   12   13 1    
    27   13   14 1    
    28   13   15 1    
    29   13   16 1    
    30   14   30 1    
    31   14   31 1    
    32   14   32 1    
    33   15   33 1    
    34   15   34 1    
    35   15   35 1    
    36   16   36 1    
    37   16   37 1    
    38   16   38 1    
@<TRIPOS>SUBSTRUCTURE
     1 UNK         1 GROUP             0       ****    0 ROOT    
