@<TRIPOS>MOLECULE
title: molecule 1
27   28    1
SMALL
USER_CHARGES


@<TRIPOS>ATOM
      1 O1         10.3681   -2.3930    0.0639 O.3       1 UNK        -0.5850 
      2 C2          9.0091   -2.2749    0.0380 C.ar      1 UNK         0.1500 
      3 C3          8.2149   -3.3744   -0.3371 C.ar      1 UNK        -0.1150 
      4 C4          8.3967   -1.0557    0.3856 C.ar      1 UNK        -0.1150 
      5 C5          6.8123   -3.2531   -0.3640 C.ar      1 UNK        -0.1150 
      6 C6          6.9933   -0.9355    0.3584 C.ar      1 UNK        -0.1150 
      7 C7          6.1851   -2.0383   -0.0184 C.ar      1 UNK         0.0850 
      8 O8          4.8081   -2.0092   -0.0722 O.3       1 UNK        -0.2850 
      9 C9          4.1440   -0.7993    0.2711 C.3       1 UNK         0.1818 
     10 C10         2.6355   -0.9351    0.1798 C.ar      1 UNK        -0.0418 
     11 C11         1.8541    0.1476   -0.2769 C.ar      1 UNK        -0.1150 
     12 C12         2.0013   -2.1299    0.5831 C.ar      1 UNK        -0.1150 
     13 C13         0.4519    0.0307   -0.3454 C.ar      1 UNK        -0.1150 
     14 C14         0.5992   -2.2464    0.5144 C.ar      1 UNK        -0.1150 
     15 C15        -0.1757   -1.1668    0.0487 C.ar      1 UNK        -0.1150 
     16 H16        10.8062   -1.5988    0.3286 H         1 UNK         0.4350 
     17 H17         8.6793   -4.3123   -0.6048 H         1 UNK         0.1150 
     18 H18         8.9994   -0.2072    0.6746 H         1 UNK         0.1150 
     19 H19         6.2102   -4.1021   -0.6531 H         1 UNK         0.1150 
     20 H20         6.5613    0.0150    0.6315 H         1 UNK         0.1150 
     21 H21         4.3922   -0.5105    1.2935 H         1 UNK         0.0300 
     22 H22         4.4700    0.0012   -0.3952 H         1 UNK         0.0300 
     23 H23         2.3269    1.0712   -0.5773 H         1 UNK         0.1150 
     24 H24         2.5881   -2.9610    0.9464 H         1 UNK         0.1150 
     25 H25        -0.1423    0.8605   -0.6988 H         1 UNK         0.1150 
     26 H26         0.1183   -3.1637    0.8209 H         1 UNK         0.1150 
     27 H27        -1.2509   -1.2560   -0.0034 H         1 UNK         0.1150 
@<TRIPOS>BOND
     1    1    2 1    
     2    1   16 1    
     3    2    3 ar   
     4    2    4 ar   
     5    3    5 ar   
     6    3   17 1    
     7    4    6 ar   
     8    4   18 1    
     9    5    7 ar   
    10    5   19 1    
    11    6    7 ar   
    12    6   20 1    
    13    7    8 1    
    14    8    9 1    
    15    9   10 1    
    16    9   21 1    
    17    9   22 1    
    18   10   11 ar   
    19   10   12 ar   
    20   11   13 ar   
    21   11   23 1    
    22   12   14 ar   
    23   12   24 1    
    24   13   15 ar   
    25   13   25 1    
    26   14   15 ar   
    27   14   26 1    
    28   15   27 1    
@<TRIPOS>SUBSTRUCTURE
     1 UNK         1 GROUP             0       ****    0 ROOT    
