@<TRIPOS>MOLECULE
title: molecule 1
22   22    1
SMALL
USER_CHARGES


@<TRIPOS>ATOM
      1 C1         -2.3534    0.4582    0.0891 C.2       1 UNK         0.5100 
      2 C2         -0.9775   -0.0647    0.0946 C.2       1 UNK        -0.1150 
      3 O3         -2.6454    1.6560    0.0925 O.2       1 UNK        -0.4300 
      4 O4         -3.2484   -0.5437    0.0797 O.3       1 UNK        -0.3300 
      5 C5          0.0894    0.7591    0.1041 C.2       1 UNK        -0.1150 
      6 C6         -4.6346   -0.2472    0.0731 C.3       1 UNK         0.1600 
      7 C7          1.5063    0.3518    0.1104 C.ar      1 UNK         0.0000 
      8 C8          2.4988    1.3566    0.1202 C.ar      1 UNK        -0.1150 
      9 C9          1.9107   -1.0044    0.1069 C.ar      1 UNK        -0.1150 
     10 C10         3.8661    1.0185    0.1265 C.ar      1 UNK        -0.1150 
     11 C11         3.2780   -1.3439    0.1132 C.ar      1 UNK        -0.1150 
     12 C12         4.2569   -0.3331    0.1230 C.ar      1 UNK        -0.1150 
     13 H13        -0.8578   -1.1373    0.0907 H         1 UNK         0.1150 
     14 H14        -0.0811    1.8269    0.1077 H         1 UNK         0.1150 
     15 H15        -5.2114   -1.1720    0.0659 H         1 UNK         0.0300 
     16 H16        -4.9150    0.3220    0.9604 H         1 UNK         0.0300 
     17 H17        -4.9049    0.3296   -0.8123 H         1 UNK         0.0300 
     18 H18         2.2151    2.3991    0.1230 H         1 UNK         0.1150 
     19 H19         1.1856   -1.8032    0.0995 H         1 UNK         0.1150 
     20 H20         4.6147    1.7970    0.1339 H         1 UNK         0.1150 
     21 H21         3.5755   -2.3821    0.1105 H         1 UNK         0.1150 
     22 H22         5.3050   -0.5940    0.1277 H         1 UNK         0.1150 
@<TRIPOS>BOND
     1    1    2 1    
     2    1    3 2    
     3    1    4 1    
     4    2    5 2    
     5    2   13 1    
     6    4    6 1    
     7    5    7 1    
     8    5   14 1    
     9    6   15 1    
    10    6   16 1    
    11    6   17 1    
    12    7    8 ar   
    13    7    9 ar   
    14    8   10 ar   
    15    8   18 1    
    16    9   11 ar   
    17    9   19 1    
    18   10   12 ar   
    19   10   20 1    
    20   11   12 ar   
    21   11   21 1    
    22   12   22 1    
@<TRIPOS>SUBSTRUCTURE
     1 UNK         1 GROUP             0       ****    0 ROOT    
