@<TRIPOS>MOLECULE
title: molecule 1
19   19    1
SMALL
USER_CHARGES


@<TRIPOS>ATOM
      1 C1          1.3601    4.6097    1.5822 C.3       1 UNK         0.1400 
      2 O2          1.7322    3.4050    0.9207 O.3       1 UNK        -0.2850 
      3 C3          1.1285    4.3772    3.0824 C.3       1 UNK        -0.1800 
      4 C4          3.0318    2.9493    1.0117 C.ar      1 UNK         0.0850 
      5 C5          3.3188    1.7240    0.3745 C.ar      1 UNK        -0.1150 
      6 C6          4.0789    3.6262    1.6880 C.ar      1 UNK        -0.1150 
      7 C7          4.6161    1.1774    0.4084 C.ar      1 UNK        -0.1150 
      8 C8          5.3770    3.0799    1.7227 C.ar      1 UNK        -0.1150 
      9 C9          5.6471    1.8558    1.0836 C.ar      1 UNK        -0.1150 
     10 H10         0.4245    4.9449    1.1342 H         1 UNK         0.0300 
     11 H11         2.0728    5.4141    1.3989 H         1 UNK         0.0300 
     12 H12         0.7935    5.2937    3.5681 H         1 UNK         0.0600 
     13 H13         0.3635    3.6173    3.2431 H         1 UNK         0.0600 
     14 H14         2.0346    4.0471    3.5894 H         1 UNK         0.0600 
     15 H15         2.5332    1.1966   -0.1465 H         1 UNK         0.1150 
     16 H16         3.9151    4.5660    2.1915 H         1 UNK         0.1150 
     17 H17         4.8194    0.2379   -0.0839 H         1 UNK         0.1150 
     18 H18         6.1673    3.6023    2.2414 H         1 UNK         0.1150 
     19 H19         6.6430    1.4384    1.1111 H         1 UNK         0.1150 
@<TRIPOS>BOND
     1    1    2 1    
     2    1    3 1    
     3    1   10 1    
     4    1   11 1    
     5    2    4 1    
     6    3   12 1    
     7    3   13 1    
     8    3   14 1    
     9    4    5 ar   
    10    4    6 ar   
    11    5    7 ar   
    12    5   15 1    
    13    6    8 ar   
    14    6   16 1    
    15    7    9 ar   
    16    7   17 1    
    17    8    9 ar   
    18    8   18 1    
    19    9   19 1    
@<TRIPOS>SUBSTRUCTURE
     1 UNK         1 GROUP             0       ****    0 ROOT    
