@<TRIPOS>MOLECULE
title: molecule 1
26   26    1
SMALL
USER_CHARGES


@<TRIPOS>ATOM
      1 N1          8.4300    0.1002    0.5994 N.pl3     1 UNK        -0.9000 
      2 C2          7.2087   -0.4926    0.2836 C.ar      1 UNK         0.1800 
      3 C3          6.8889   -1.7665    0.7944 C.ar      1 UNK        -0.1150 
      4 C4          6.2905    0.1811   -0.5466 C.ar      1 UNK        -0.1150 
      5 C5          5.6545   -2.3654    0.4753 C.ar      1 UNK        -0.1150 
      6 C6          5.0561   -0.4180   -0.8656 C.ar      1 UNK        -0.1150 
      7 C7          4.7345   -1.6936   -0.3565 C.ar      1 UNK        -0.1150 
      8 C8          3.4036   -2.3370   -0.6971 C.3       1 UNK        -0.0050 
      9 C9          2.3082   -1.9757    0.3165 C.3       1 UNK        -0.1200 
     10 C10         0.9572   -2.6228   -0.0204 C.3       1 UNK        -0.1200 
     11 C11        -0.1365   -2.2623    0.9911 C.3       1 UNK        -0.1800 
     12 H12         8.6805    1.0134    0.2486 H         1 UNK         0.3600 
     13 H13         9.1028   -0.3609    1.1949 H         1 UNK         0.3600 
     14 H14         7.5867   -2.2891    1.4323 H         1 UNK         0.1150 
     15 H15         6.5274    1.1583   -0.9415 H         1 UNK         0.1150 
     16 H16         5.4155   -3.3411    0.8724 H         1 UNK         0.1150 
     17 H17         4.3565    0.1053   -1.5008 H         1 UNK         0.1150 
     18 H18         3.1039   -2.0257   -1.6986 H         1 UNK         0.0600 
     19 H19         3.5322   -3.4194   -0.7389 H         1 UNK         0.0600 
     20 H20         2.6203   -2.2872    1.3142 H         1 UNK         0.0600 
     21 H21         2.1916   -0.8917    0.3534 H         1 UNK         0.0600 
     22 H22         0.6408   -2.3121   -1.0168 H         1 UNK         0.0600 
     23 H23         1.0694   -3.7070   -0.0563 H         1 UNK         0.0600 
     24 H24        -1.0821   -2.7356    0.7258 H         1 UNK         0.0600 
     25 H25         0.1308   -2.5933    1.9950 H         1 UNK         0.0600 
     26 H26        -0.3018   -1.1852    1.0254 H         1 UNK         0.0600 
@<TRIPOS>BOND
     1    1    2 1    
     2    1   12 1    
     3    1   13 1    
     4    2    3 ar   
     5    2    4 ar   
     6    3    5 ar   
     7    3   14 1    
     8    4    6 ar   
     9    4   15 1    
    10    5    7 ar   
    11    5   16 1    
    12    6    7 ar   
    13    6   17 1    
    14    7    8 1    
    15    8    9 1    
    16    8   18 1    
    17    8   19 1    
    18    9   10 1    
    19    9   20 1    
    20    9   21 1    
    21   10   11 1    
    22   10   22 1    
    23   10   23 1    
    24   11   24 1    
    25   11   25 1    
    26   11   26 1    
@<TRIPOS>SUBSTRUCTURE
     1 UNK         1 GROUP             0       ****    0 ROOT    
