@<TRIPOS>MOLECULE
title: molecule 1
16   16    1
SMALL
USER_CHARGES


@<TRIPOS>ATOM
      1 C1         -0.5277    2.0061    0.1059 C.3       1 UNK         0.1100 
      2 O2          0.2260    0.8026    0.1230 O.3       1 UNK        -0.2850 
      3 C3          1.6009    0.8976    0.1056 C.ar      1 UNK         0.0850 
      4 C4          2.3265   -0.3118    0.1231 C.ar      1 UNK        -0.1150 
      5 C5          2.3150    2.1225    0.0717 C.ar      1 UNK        -0.1150 
      6 C6          3.7346   -0.3085    0.1073 C.ar      1 UNK        -0.1150 
      7 C7          3.7237    2.1261    0.0559 C.ar      1 UNK        -0.1150 
      8 C8          4.4344    0.9117    0.0736 C.ar      1 UNK         0.2000 
      9 Br9         6.3373    0.9197    0.0522 Br        1 UNK        -0.2000 
     10 H10        -1.5905    1.7651    0.1229 H         1 UNK         0.0300 
     11 H11        -0.3156    2.6220    0.9810 H         1 UNK         0.0300 
     12 H12        -0.3355    2.5844   -0.7988 H         1 UNK         0.0300 
     13 H13         1.7966   -1.2527    0.1489 H         1 UNK         0.1150 
     14 H14         1.8053    3.0737    0.0573 H         1 UNK         0.1150 
     15 H15         4.2767   -1.2426    0.1209 H         1 UNK         0.1150 
     16 H16         4.2593    3.0637    0.0301 H         1 UNK         0.1150 
@<TRIPOS>BOND
     1    1    2 1    
     2    1   10 1    
     3    1   11 1    
     4    1   12 1    
     5    2    3 1    
     6    3    4 ar   
     7    3    5 ar   
     8    4    6 ar   
     9    4   13 1    
    10    5    7 ar   
    11    5   14 1    
    12    6    8 ar   
    13    6   15 1    
    14    7    8 ar   
    15    7   16 1    
    16    8    9 1    
@<TRIPOS>SUBSTRUCTURE
     1 UNK         1 GROUP             0       ****    0 ROOT    
