@<TRIPOS>MOLECULE
title: molecule 1
20   19    1
SMALL
USER_CHARGES


@<TRIPOS>ATOM
      1 S1          3.1172    0.6228   -0.5301 S.2       1 UNK        -0.4762 
      2 C2          3.3951   -0.9316    0.0319 C.2       1 UNK         0.4442 
      3 N3          2.4654   -1.7726    0.5534 N.pl3     1 UNK        -0.4272 
      4 N4          4.5905   -1.5755    0.0472 N.pl3     1 UNK        -0.4272 
      5 C5          1.0405   -1.4846    0.7170 C.3       1 UNK         0.0320 
      6 C6          5.8666   -1.0316   -0.4171 C.3       1 UNK         0.0320 
      7 C7          0.2429   -1.8489   -0.5423 C.3       1 UNK        -0.1800 
      8 C8          6.5923   -0.2654    0.6968 C.3       1 UNK        -0.1800 
      9 H9          2.7760   -2.6838    0.8562 H         1 UNK         0.2912 
     10 H10         4.6109   -2.5156    0.4138 H         1 UNK         0.2912 
     11 H11         0.6757   -2.0764    1.5567 H         1 UNK         0.0600 
     12 H12         0.8752   -0.4420    0.9902 H         1 UNK         0.0600 
     13 H13         6.4867   -1.8678   -0.7405 H         1 UNK         0.0600 
     14 H14         5.7325   -0.3999   -1.2957 H         1 UNK         0.0600 
     15 H15        -0.8211   -1.6663   -0.3911 H         1 UNK         0.0600 
     16 H16         0.5606   -1.2572   -1.4011 H         1 UNK         0.0600 
     17 H17         0.3663   -2.9020   -0.7964 H         1 UNK         0.0600 
     18 H18         7.5584    0.0994    0.3477 H         1 UNK         0.0600 
     19 H19         6.0146    0.5971    1.0299 H         1 UNK         0.0600 
     20 H20         6.7713   -0.9037    1.5624 H         1 UNK         0.0600 
@<TRIPOS>BOND
     1    1    2 2    
     2    2    3 1    
     3    2    4 1    
     4    3    5 1    
     5    3    9 1    
     6    4    6 1    
     7    4   10 1    
     8    5    7 1    
     9    5   11 1    
    10    5   12 1    
    11    6    8 1    
    12    6   13 1    
    13    6   14 1    
    14    7   15 1    
    15    7   16 1    
    16    7   17 1    
    17    8   18 1    
    18    8   19 1    
    19    8   20 1    
@<TRIPOS>SUBSTRUCTURE
     1 UNK         1 GROUP             0       ****    0 ROOT    
