@<TRIPOS>MOLECULE
title: molecule 1
20   19    1
SMALL
USER_CHARGES


@<TRIPOS>ATOM
      1 C1          0.0695    0.5753    0.1128 C.2       1 UNK         0.5100 
      2 C2          1.3214   -0.3051    0.0872 C.3       1 UNK        -0.1200 
      3 O3          0.1271    1.8061    0.1389 O.2       1 UNK        -0.4300 
      4 O4         -1.0571   -0.1541    0.1033 O.3       1 UNK        -0.3300 
      5 C5          2.6387    0.4898    0.0970 C.3       1 UNK        -0.1200 
      6 C6         -2.3155    0.4994    0.1242 C.3       1 UNK         0.1900 
      7 C7          3.8673   -0.4252    0.0707 C.3       1 UNK        -0.1800 
      8 C8         -3.4311   -0.5485    0.1078 C.3       1 UNK        -0.1800 
      9 H9          1.2878   -0.9729    0.9484 H         1 UNK         0.0600 
     10 H10         1.2783   -0.9354   -0.8014 H         1 UNK         0.0600 
     11 H11         2.6748    1.1594   -0.7635 H         1 UNK         0.0600 
     12 H12         2.6843    1.1220    0.9850 H         1 UNK         0.0600 
     13 H13        -2.3968    1.1189    1.0185 H         1 UNK         0.0300 
     14 H14        -2.4064    1.1566   -0.7418 H         1 UNK         0.0300 
     15 H15         4.7875    0.1594    0.0783 H         1 UNK         0.0600 
     16 H16         3.8853   -1.0851    0.9385 H         1 UNK         0.0600 
     17 H17         3.8757   -1.0474   -0.8247 H         1 UNK         0.0600 
     18 H18        -4.4111   -0.0714    0.1234 H         1 UNK         0.0600 
     19 H19        -3.3748   -1.1674   -0.7880 H         1 UNK         0.0600 
     20 H20        -3.3652   -1.2052    0.9756 H         1 UNK         0.0600 
@<TRIPOS>BOND
     1    1    2 1    
     2    1    3 2    
     3    1    4 1    
     4    2    5 1    
     5    2    9 1    
     6    2   10 1    
     7    4    6 1    
     8    5    7 1    
     9    5   11 1    
    10    5   12 1    
    11    6    8 1    
    12    6   13 1    
    13    6   14 1    
    14    7   15 1    
    15    7   16 1    
    16    7   17 1    
    17    8   18 1    
    18    8   19 1    
    19    8   20 1    
@<TRIPOS>SUBSTRUCTURE
     1 UNK         1 GROUP             0       ****    0 ROOT    
