@<TRIPOS>MOLECULE
title: molecule 1
12   12    1
SMALL
USER_CHARGES


@<TRIPOS>ATOM
      1 C1          1.3949    2.2280    0.1427 C.ar      1 UNK        -0.1150 
      2 C2          0.6859    1.0106    0.1718 C.ar      1 UNK         0.1800 
      3 C3          2.8016    2.2224    0.0650 C.ar      1 UNK        -0.1150 
      4 C4          1.3843   -0.2123    0.1231 C.ar      1 UNK        -0.1150 
      5 Cl5        -1.0368    1.0173    0.2670 Cl        1 UNK        -0.1800 
      6 C6          3.4997    0.9996    0.0163 C.ar      1 UNK         0.2000 
      7 C7          2.7910   -0.2177    0.0453 C.ar      1 UNK        -0.1150 
      8 Br8         5.3997    0.9922   -0.0887 Br        1 UNK        -0.2000 
      9 H9          0.8611    3.1663    0.1800 H         1 UNK         0.1150 
     10 H10         3.3444    3.1559    0.0427 H         1 UNK         0.1150 
     11 H11         0.8424   -1.1464    0.1452 H         1 UNK         0.1150 
     12 H12         3.3257   -1.1553    0.0080 H         1 UNK         0.1150 
@<TRIPOS>BOND
     1    1    2 ar   
     2    1    3 ar   
     3    1    9 1    
     4    2    4 ar   
     5    2    5 1    
     6    3    6 ar   
     7    3   10 1    
     8    4    7 ar   
     9    4   11 1    
    10    6    7 ar   
    11    6    8 1    
    12    7   12 1    
@<TRIPOS>SUBSTRUCTURE
     1 UNK         1 GROUP             0       ****    0 ROOT    
