@<TRIPOS>MOLECULE
title: molecule 1
13   12    1
SMALL
USER_CHARGES


@<TRIPOS>ATOM
      1 C1         -0.0503    0.1801    0.0774 C.3       1 UNK        -0.1800 
      2 C2          1.2431   -0.6414    0.0821 C.3       1 UNK        -0.1200 
      3 C3          2.4956    0.2445    0.1097 C.3       1 UNK         0.0600 
      4 N4          3.6869   -0.5812    0.1112 N.3       1 UNK        -0.9000 
      5 H5         -0.9242   -0.4714    0.0569 H         1 UNK         0.0600 
      6 H6         -0.1225    0.8059    0.9673 H         1 UNK         0.0600 
      7 H7         -0.1000    0.8309   -0.7960 H         1 UNK         0.0600 
      8 H8          1.2409   -1.3065    0.9466 H         1 UNK         0.0600 
      9 H9          1.2636   -1.2812   -0.8013 H         1 UNK         0.0600 
     10 H10         2.5190    0.9024   -0.7597 H         1 UNK         0.0600 
     11 H11         2.4976    0.8762    0.9985 H         1 UNK         0.0600 
     12 H12         4.5082    0.0040    0.1698 H         1 UNK         0.3600 
     13 H13         3.6937   -1.1700    0.9319 H         1 UNK         0.3600 
@<TRIPOS>BOND
     1    1    2 1    
     2    1    5 1    
     3    1    6 1    
     4    1    7 1    
     5    2    3 1    
     6    2    8 1    
     7    2    9 1    
     8    3    4 1    
     9    3   10 1    
    10    3   11 1    
    11    4   12 1    
    12    4   13 1    
@<TRIPOS>SUBSTRUCTURE
     1 UNK         1 GROUP             0       ****    0 ROOT    
