@<TRIPOS>MOLECULE
title: molecule 1
17   16    1
SMALL
USER_CHARGES


@<TRIPOS>ATOM
      1 C1          1.8464    1.7480    0.0610 C.3       1 UNK        -0.0095 
      2 C2          0.5514    0.9597    0.3212 C.3       1 UNK        -0.1635 
      3 C3          3.1213    0.9114    0.2558 C.3       1 UNK        -0.1200 
      4 Br4         0.3322   -0.4438   -1.0766 Br        1 UNK        -0.2039 
      5 C5         -0.6939    1.8537    0.2999 C.3       1 UNK        -0.0695 
      6 C6          4.3990    1.7284    0.0339 C.3       1 UNK        -0.1800 
      7 H7          1.8256    2.1650   -0.9467 H         1 UNK         0.0600 
      8 H8          1.8848    2.5986    0.7427 H         1 UNK         0.0600 
      9 H9          0.6117    0.4486    1.2828 H         1 UNK         0.1464 
     10 H10         3.1345    0.4932    1.2628 H         1 UNK         0.0600 
     11 H11         3.1205    0.0637   -0.4295 H         1 UNK         0.0600 
     12 H12        -1.5957    1.2699    0.4860 H         1 UNK         0.0600 
     13 H13        -0.6366    2.6278    1.0656 H         1 UNK         0.0600 
     14 H14        -0.8095    2.3460   -0.6661 H         1 UNK         0.0600 
     15 H15         5.2852    1.1102    0.1788 H         1 UNK         0.0600 
     16 H16         4.4372    2.1320   -0.9783 H         1 UNK         0.0600 
     17 H17         4.4591    2.5642    0.7314 H         1 UNK         0.0600 
@<TRIPOS>BOND
     1    1    2 1    
     2    1    3 1    
     3    1    7 1    
     4    1    8 1    
     5    2    4 1    
     6    2    5 1    
     7    2    9 1    
     8    3    6 1    
     9    3   10 1    
    10    3   11 1    
    11    5   12 1    
    12    5   13 1    
    13    5   14 1    
    14    6   15 1    
    15    6   16 1    
    16    6   17 1    
@<TRIPOS>SUBSTRUCTURE
     1 UNK         1 GROUP             0       ****    0 ROOT    
