@<TRIPOS>MOLECULE
title: molecule 1
23   22    1
SMALL
USER_CHARGES


@<TRIPOS>ATOM
      1 O1          3.1892   -1.6273   -1.3579 O.3       1 UNK        -0.6830 
      2 C2          3.7455   -1.1918   -2.5818 C.3       1 UNK         0.2650 
      3 C3          2.6037   -0.4518   -3.3303 C.3       1 UNK        -0.1200 
      4 C4          4.9119   -0.2619   -2.2006 C.3       1 UNK        -0.1800 
      5 C5          4.2471   -2.3610   -3.3314 C.1       1 UNK         0.0100 
      6 C6          2.9488    0.1742   -4.7087 C.3       1 UNK        -0.0600 
      7 C7          4.6576   -3.3224   -3.9630 C.1       1 UNK        -0.2100 
      8 C8          1.7681    0.0413   -5.6841 C.3       1 UNK        -0.1800 
      9 C9          3.3607    1.6526   -4.5917 C.3       1 UNK        -0.1800 
     10 H10         3.4680   -1.0379   -0.6741 H         1 UNK         0.4180 
     11 H11         1.7919   -1.1688   -3.4684 H         1 UNK         0.0600 
     12 H12         2.1784    0.3196   -2.6863 H         1 UNK         0.0600 
     13 H13         5.4622    0.0741   -3.0800 H         1 UNK         0.0600 
     14 H14         4.5588    0.6247   -1.6726 H         1 UNK         0.0600 
     15 H15         5.6299   -0.7651   -1.5509 H         1 UNK         0.0600 
     16 H16         3.7827   -0.3670   -5.1557 H         1 UNK         0.0600 
     17 H17         5.0134   -4.1645   -4.5128 H         1 UNK         0.2000 
     18 H18         2.0121    0.4651   -6.6586 H         1 UNK         0.0600 
     19 H19         1.5033   -1.0047   -5.8421 H         1 UNK         0.0600 
     20 H20         0.8834    0.5567   -5.3088 H         1 UNK         0.0600 
     21 H21         3.6214    2.0632   -5.5675 H         1 UNK         0.0600 
     22 H22         2.5489    2.2580   -4.1871 H         1 UNK         0.0600 
     23 H23         4.2252    1.7897   -3.9449 H         1 UNK         0.0600 
@<TRIPOS>BOND
     1    1    2 1    
     2    1   10 1    
     3    2    3 1    
     4    2    4 1    
     5    2    5 1    
     6    3    6 1    
     7    3   11 1    
     8    3   12 1    
     9    4   13 1    
    10    4   14 1    
    11    4   15 1    
    12    5    7 3    
    13    6    8 1    
    14    6    9 1    
    15    6   16 1    
    16    7   17 1    
    17    8   18 1    
    18    8   19 1    
    19    8   20 1    
    20    9   21 1    
    21    9   22 1    
    22    9   23 1    
@<TRIPOS>SUBSTRUCTURE
     1 UNK         1 GROUP             0       ****    0 ROOT    
