@<TRIPOS>MOLECULE
title: molecule 1
13   13    1
SMALL
USER_CHARGES


@<TRIPOS>ATOM
      1 N1          2.0051   -2.2132    0.1011 N.ar      1 UNK        -0.6780 
      2 C2          1.3589   -1.0283    0.1145 C.ar      1 UNK         0.6850 
      3 C3          3.3557   -2.1980    0.0777 C.ar      1 UNK         0.4730 
      4 N4         -0.0312   -1.0773    0.1385 N.pl3     1 UNK        -0.9200 
      5 C5          2.0240    0.2147    0.1051 C.ar      1 UNK        -0.4470 
      6 C6          4.1142   -1.0104    0.0667 C.ar      1 UNK        -0.0920 
      7 C7          3.4323    0.2213    0.0807 C.ar      1 UNK         0.2270 
      8 Br8         6.0160   -1.0695    0.0335 Br        1 UNK        -0.2000 
      9 H9          3.8450   -3.1607    0.0675 H         1 UNK         0.0120 
     10 H10        -0.5922   -0.2382    0.1497 H         1 UNK         0.3600 
     11 H11        -0.5210   -1.9601    0.1454 H         1 UNK         0.3600 
     12 H12         1.4721    1.1431    0.1164 H         1 UNK         0.1550 
     13 H13         3.9778    1.1534    0.0729 H         1 UNK         0.0650 
@<TRIPOS>BOND
     1    1    2 ar   
     2    1    3 ar   
     3    2    4 1    
     4    2    5 ar   
     5    3    6 ar   
     6    3    9 1    
     7    4   10 1    
     8    4   11 1    
     9    5    7 ar   
    10    5   12 1    
    11    6    7 ar   
    12    6    8 1    
    13    7   13 1    
@<TRIPOS>SUBSTRUCTURE
     1 UNK         1 GROUP             0       ****    0 ROOT    
