@<TRIPOS>MOLECULE
title: molecule 1
19   19    1
SMALL
USER_CHARGES


@<TRIPOS>ATOM
      1 C1          4.2362    0.3303    0.0790 C.3       1 UNK        -0.0650 
      2 C2          3.4874   -0.9864    0.0927 C.ar      1 UNK        -0.1150 
      3 C3          2.0782   -0.9994    0.0395 C.ar      1 UNK        -0.1150 
      4 C4          4.1967   -2.2032    0.1653 C.ar      1 UNK        -0.1150 
      5 C5          1.3779   -2.2234    0.0541 C.ar      1 UNK        -0.1150 
      6 C6          3.4993   -3.4274    0.1822 C.ar      1 UNK         0.1500 
      7 C7         -0.1358   -2.2337   -0.0010 C.3       1 UNK        -0.0650 
      8 C8          2.0919   -3.4373    0.1268 C.ar      1 UNK        -0.1150 
      9 O9          4.1850   -4.6050    0.2529 O.3       1 UNK        -0.5850 
     10 H10         5.2158    0.2163   -0.3862 H         1 UNK         0.0600 
     11 H11         3.6837    1.0861   -0.4802 H         1 UNK         0.0600 
     12 H12         4.3789    0.6919    1.0975 H         1 UNK         0.0600 
     13 H13         1.5328   -0.0680   -0.0118 H         1 UNK         0.1150 
     14 H14         5.2761   -2.1957    0.2092 H         1 UNK         0.1150 
     15 H15        -0.5018   -3.1419   -0.4808 H         1 UNK         0.0600 
     16 H16        -0.5487   -2.1867    1.0068 H         1 UNK         0.0600 
     17 H17        -0.5101   -1.3797   -0.5664 H         1 UNK         0.0600 
     18 H18         1.5610   -4.3781    0.1414 H         1 UNK         0.1150 
     19 H19         5.1219   -4.4880    0.2860 H         1 UNK         0.4350 
@<TRIPOS>BOND
     1    1    2 1    
     2    1   10 1    
     3    1   11 1    
     4    1   12 1    
     5    2    3 ar   
     6    2    4 ar   
     7    3    5 ar   
     8    3   13 1    
     9    4    6 ar   
    10    4   14 1    
    11    5    7 1    
    12    5    8 ar   
    13    6    8 ar   
    14    6    9 1    
    15    7   15 1    
    16    7   16 1    
    17    7   17 1    
    18    8   18 1    
    19    9   19 1    
@<TRIPOS>SUBSTRUCTURE
     1 UNK         1 GROUP             0       ****    0 ROOT    
