@<TRIPOS>MOLECULE
title: molecule 1
14   14    1
SMALL
USER_CHARGES


@<TRIPOS>ATOM
      1 Cl1        -0.2808   -2.7133    0.1283 Cl        1 UNK        -0.1800 
      2 C2          1.2179   -1.8585    0.1116 C.ar      1 UNK         0.1800 
      3 C3          1.2251   -0.4499    0.0923 C.ar      1 UNK        -0.1150 
      4 C4          2.4345   -2.5695    0.1172 C.ar      1 UNK        -0.1150 
      5 C5          2.4488    0.2477    0.0787 C.ar      1 UNK        -0.1150 
      6 C6          3.6597   -1.8722    0.1035 C.ar      1 UNK         0.1800 
      7 C7          3.6653   -0.4627    0.0843 C.ar      1 UNK        -0.1150 
      8 N8          4.8635   -2.5749    0.1091 N.pl3     1 UNK        -0.9000 
      9 H9          0.2933    0.0964    0.0880 H         1 UNK         0.1150 
     10 H10         2.4234   -3.6497    0.1320 H         1 UNK         0.1150 
     11 H11         2.4544    1.3276    0.0639 H         1 UNK         0.1150 
     12 H12         4.6001    0.0790    0.0737 H         1 UNK         0.1150 
     13 H13         5.7538   -2.0981    0.0996 H         1 UNK         0.3600 
     14 H14         4.8868   -3.5845    0.1228 H         1 UNK         0.3600 
@<TRIPOS>BOND
     1    1    2 1    
     2    2    3 ar   
     3    2    4 ar   
     4    3    5 ar   
     5    3    9 1    
     6    4    6 ar   
     7    4   10 1    
     8    5    7 ar   
     9    5   11 1    
    10    6    7 ar   
    11    6    8 1    
    12    7   12 1    
    13    8   13 1    
    14    8   14 1    
@<TRIPOS>SUBSTRUCTURE
     1 UNK         1 GROUP             0       ****    0 ROOT    
