@<TRIPOS>MOLECULE
title: molecule 1
12   12    1
SMALL
USER_CHARGES


@<TRIPOS>ATOM
      1 C1          1.4470   -0.9960    0.1083 C.ar      1 UNK         0.2000 
      2 C2          2.1696    0.2135    0.1018 C.ar      1 UNK        -0.1150 
      3 C3          2.1333   -2.2265    0.0990 C.ar      1 UNK        -0.1150 
      4 Br4        -0.4557   -0.9677    0.1298 Br        1 UNK        -0.2000 
      5 C5          3.5782    0.1926    0.0859 C.ar      1 UNK        -0.1150 
      6 C6          3.5419   -2.2474    0.0831 C.ar      1 UNK        -0.1150 
      7 C7          4.2642   -1.0379    0.0766 C.ar      1 UNK        -0.1150 
      8 H8          1.6439    1.1570    0.1090 H         1 UNK         0.1150 
      9 H9          1.5798   -3.1539    0.1039 H         1 UNK         0.1150 
     10 H10         4.1320    1.1199    0.0809 H         1 UNK         0.1150 
     11 H11         4.0679   -3.1908    0.0759 H         1 UNK         0.1150 
     12 H12         5.3442   -1.0539    0.0644 H         1 UNK         0.1150 
@<TRIPOS>BOND
     1    1    2 ar   
     2    1    3 ar   
     3    1    4 1    
     4    2    5 ar   
     5    2    8 1    
     6    3    6 ar   
     7    3    9 1    
     8    5    7 ar   
     9    5   10 1    
    10    6    7 ar   
    11    6   11 1    
    12    7   12 1    
@<TRIPOS>SUBSTRUCTURE
     1 UNK         1 GROUP             0       ****    0 ROOT    
