@<TRIPOS>MOLECULE
title: molecule 1
14   14    1
SMALL
USER_CHARGES


@<TRIPOS>ATOM
      1 N1          3.5276   -2.2058    0.1971 N.ar      1 UNK        -0.6780 
      2 C2          2.1774   -2.1909    0.1954 C.ar      1 UNK         0.4730 
      3 C3          4.1724   -1.0226    0.1109 C.ar      1 UNK         0.4730 
      4 C4          1.4156   -1.0068    0.1076 C.ar      1 UNK        -0.4550 
      5 C5          3.5073    0.2163    0.0209 C.ar      1 UNK        -0.4470 
      6 C6         -0.0981   -1.0552    0.1137 C.3       1 UNK        -0.0170 
      7 C7          2.0994    0.2227    0.0199 C.ar      1 UNK         0.2270 
      8 H8          1.6917   -3.1531    0.2670 H         1 UNK         0.0120 
      9 H9          5.2515   -1.0641    0.1144 H         1 UNK         0.0120 
     10 H10         4.0649    1.1387   -0.0453 H         1 UNK         0.1550 
     11 H11        -0.4585   -1.9857   -0.3260 H         1 UNK         0.0600 
     12 H12        -0.4724   -0.9898    1.1355 H         1 UNK         0.0600 
     13 H13        -0.5154   -0.2267   -0.4595 H         1 UNK         0.0600 
     14 H14         1.5571    1.1546   -0.0466 H         1 UNK         0.0650 
@<TRIPOS>BOND
     1    1    2 ar   
     2    1    3 ar   
     3    2    4 ar   
     4    2    8 1    
     5    3    5 ar   
     6    3    9 1    
     7    4    6 1    
     8    4    7 ar   
     9    5    7 ar   
    10    5   10 1    
    11    6   11 1    
    12    6   12 1    
    13    6   13 1    
    14    7   14 1    
@<TRIPOS>SUBSTRUCTURE
     1 UNK         1 GROUP             0       ****    0 ROOT    
