@<TRIPOS>MOLECULE
title: molecule 1
16   15    1
SMALL
USER_CHARGES


@<TRIPOS>ATOM
      1 C1         -0.1045   -0.6059    0.0958 C.3       1 UNK        -0.1800 
      2 C2          1.1727    0.2415    0.1059 C.3       1 UNK        -0.1200 
      3 C3          2.4480   -0.6126    0.0838 C.3       1 UNK        -0.1200 
      4 C4          3.7221    0.2427    0.0936 C.3       1 UNK         0.0600 
      5 N5          4.8931   -0.6113    0.0697 N.3       1 UNK        -0.9000 
      6 H6         -0.9914    0.0280    0.1117 H         1 UNK         0.0600 
      7 H7         -0.1570   -1.2287   -0.7976 H         1 UNK         0.0600 
      8 H8         -0.1491   -1.2619    0.9656 H         1 UNK         0.0600 
      9 H9          1.1660    0.9109   -0.7551 H         1 UNK         0.0600 
     10 H10         1.1740    0.8780    0.9916 H         1 UNK         0.0600 
     11 H11         2.4491   -1.2822    0.9451 H         1 UNK         0.0600 
     12 H12         2.4417   -1.2482   -0.8030 H         1 UNK         0.0600 
     13 H13         3.7462    0.9046   -0.7726 H         1 UNK         0.0600 
     14 H14         3.7552    0.8693    0.9855 H         1 UNK         0.0600 
     15 H15         5.7292   -0.0463    0.1168 H         1 UNK         0.3600 
     16 H16         4.9002   -1.2049    0.8870 H         1 UNK         0.3600 
@<TRIPOS>BOND
     1    1    2 1    
     2    1    6 1    
     3    1    7 1    
     4    1    8 1    
     5    2    3 1    
     6    2    9 1    
     7    2   10 1    
     8    3    4 1    
     9    3   11 1    
    10    3   12 1    
    11    4    5 1    
    12    4   13 1    
    13    4   14 1    
    14    5   15 1    
    15    5   16 1    
@<TRIPOS>SUBSTRUCTURE
     1 UNK         1 GROUP             0       ****    0 ROOT    
