@<TRIPOS>MOLECULE
title: molecule 1
17   16    1
SMALL
USER_CHARGES


@<TRIPOS>ATOM
      1 C1          1.1453    0.2387    0.1026 C.3       1 UNK        -0.1200 
      2 C2          2.4256   -0.6089    0.0879 C.3       1 UNK        -0.1200 
      3 C3         -0.1268   -0.6162    0.0967 C.3       1 UNK        -0.1800 
      4 C4          3.7002    0.2472    0.0938 C.3       1 UNK        -0.1200 
      5 C5          4.9779   -0.5991    0.0791 C.3       1 UNK        -0.1800 
      6 H6          1.1415    0.8811    0.9839 H         1 UNK         0.0600 
      7 H7          1.1354    0.9022   -0.7629 H         1 UNK         0.0600 
      8 H8          2.4308   -1.2726    0.9535 H         1 UNK         0.0600 
      9 H9          2.4247   -1.2516   -0.7935 H         1 UNK         0.0600 
     10 H10        -1.0174    0.0125    0.1074 H         1 UNK         0.0600 
     11 H11        -0.1746   -1.2453   -0.7926 H         1 UNK         0.0600 
     12 H12        -0.1685   -1.2666    0.9709 H         1 UNK         0.0600 
     13 H13         3.6996    0.9108   -0.7718 H         1 UNK         0.0600 
     14 H14         3.7057    0.8897    0.9750 H         1 UNK         0.0600 
     15 H15         5.8643    0.0356    0.0837 H         1 UNK         0.0600 
     16 H16         5.0300   -1.2492    0.9529 H         1 UNK         0.0600 
     17 H17         5.0238   -1.2279   -0.8105 H         1 UNK         0.0600 
@<TRIPOS>BOND
     1    1    2 1    
     2    1    3 1    
     3    1    6 1    
     4    1    7 1    
     5    2    4 1    
     6    2    8 1    
     7    2    9 1    
     8    3   10 1    
     9    3   11 1    
    10    3   12 1    
    11    4    5 1    
    12    4   13 1    
    13    4   14 1    
    14    5   15 1    
    15    5   16 1    
    16    5   17 1    
@<TRIPOS>SUBSTRUCTURE
     1 UNK         1 GROUP             0       ****    0 ROOT    
