@<TRIPOS>MOLECULE
title: molecule 1
15   14    1
SMALL
USER_CHARGES


@<TRIPOS>ATOM
      1 N1          4.8674   -0.6043    0.0655 N.3       1 UNK        -0.9000 
      2 C2          3.6946    0.2474    0.0944 C.3       1 UNK         0.0600 
      3 C3          2.4215   -0.6091    0.0921 C.3       1 UNK        -0.1200 
      4 C4          1.1499    0.2493    0.1161 C.3       1 UNK         0.0600 
      5 N5         -0.0245   -0.6008    0.1188 N.3       1 UNK        -0.9000 
      6 H6          5.7027   -0.0379    0.1107 H         1 UNK         0.3600 
      7 H7          4.8782   -1.1991    0.8820 H         1 UNK         0.3600 
      8 H8          3.7307    0.8750    0.9854 H         1 UNK         0.0600 
      9 H9          3.7131    0.9084   -0.7726 H         1 UNK         0.0600 
     10 H10         2.4143   -1.2478   -0.7927 H         1 UNK         0.0600 
     11 H11         2.4274   -1.2747    0.9568 H         1 UNK         0.0600 
     12 H12         1.1325    0.8835    1.0030 H         1 UNK         0.0600 
     13 H13         1.1148    0.9041   -0.7552 H         1 UNK         0.0600 
     14 H14        -0.8587   -0.0318    0.0910 H         1 UNK         0.3600 
     15 H15        -0.0363   -1.1702   -0.7155 H         1 UNK         0.3600 
@<TRIPOS>BOND
     1    1    2 1    
     2    1    6 1    
     3    1    7 1    
     4    2    3 1    
     5    2    8 1    
     6    2    9 1    
     7    3    4 1    
     8    3   10 1    
     9    3   11 1    
    10    4    5 1    
    11    4   12 1    
    12    4   13 1    
    13    5   14 1    
    14    5   15 1    
@<TRIPOS>SUBSTRUCTURE
     1 UNK         1 GROUP             0       ****    0 ROOT    
