@<TRIPOS>MOLECULE
title: molecule 1
10   10    1
SMALL
USER_CHARGES


@<TRIPOS>ATOM
      1 N1          1.8885    0.1465    0.0716 N.pl3     1 UNK        -0.2390 
      2 C2          2.3070   -1.1667    0.0903 C.ar      1 UNK        -0.1630 
      3 C3          0.5118    0.2160    0.0736 C.ar      1 UNK        -0.1630 
      4 C4          1.1802   -1.9419    0.1043 C.ar      1 UNK        -0.1490 
      5 C5          0.0498   -1.0712    0.0939 C.ar      1 UNK        -0.1490 
      6 H6          2.5050    0.9467    0.0582 H         1 UNK         0.3170 
      7 H7          3.3564   -1.4229    0.0917 H         1 UNK         0.1550 
      8 H8         -0.0037    1.1652    0.0606 H         1 UNK         0.1550 
      9 H9          1.1679   -3.0217    0.1205 H         1 UNK         0.1180 
     10 H10        -0.9913   -1.3586    0.1005 H         1 UNK         0.1180 
@<TRIPOS>BOND
     1    1    2 ar   
     2    1    3 ar   
     3    1    6 1    
     4    2    4 ar   
     5    2    7 1    
     6    3    5 ar   
     7    3    8 1    
     8    4    5 ar   
     9    4    9 1    
    10    5   10 1    
@<TRIPOS>SUBSTRUCTURE
     1 UNK         1 GROUP             0       ****    0 ROOT    
