@<TRIPOS>MOLECULE
title: molecule 1
14   13    1
SMALL
USER_CHARGES


@<TRIPOS>ATOM
      1 Br1        -0.4244   -0.7428    0.0604 Br        1 UNK        -0.2039 
      2 C2          1.2263    0.3689    0.0939 C.3       1 UNK        -0.1994 
      3 C3          2.4591   -0.5419    0.0889 C.3       1 UNK        -0.0095 
      4 C4          3.7747    0.2488    0.1140 C.3       1 UNK        -0.1200 
      5 C5          5.0085   -0.6607    0.1091 C.3       1 UNK        -0.1800 
      6 H6          1.1915    0.9915    0.9883 H         1 UNK         0.1464 
      7 H7          1.2069    1.0218   -0.7792 H         1 UNK         0.1464 
      8 H8          2.4177   -1.2085    0.9511 H         1 UNK         0.0600 
      9 H9          2.4329   -1.1785   -0.7962 H         1 UNK         0.0600 
     10 H10         3.8174    0.9157   -0.7479 H         1 UNK         0.0600 
     11 H11         3.8022    0.8857    0.9988 H         1 UNK         0.0600 
     12 H12         5.9255   -0.0713    0.1272 H         1 UNK         0.0600 
     13 H13         5.0178   -1.3169    0.9798 H         1 UNK         0.0600 
     14 H14         5.0331   -1.2866   -0.7834 H         1 UNK         0.0600 
@<TRIPOS>BOND
     1    1    2 1    
     2    2    3 1    
     3    2    6 1    
     4    2    7 1    
     5    3    4 1    
     6    3    8 1    
     7    3    9 1    
     8    4    5 1    
     9    4   10 1    
    10    4   11 1    
    11    5   12 1    
    12    5   13 1    
    13    5   14 1    
@<TRIPOS>SUBSTRUCTURE
     1 UNK         1 GROUP             0       ****    0 ROOT    
