@<TRIPOS>MOLECULE
title: molecule 1
17   16    1
SMALL
USER_CHARGES


@<TRIPOS>ATOM
      1 C1         -0.0612   -0.6170    0.1005 C.3       1 UNK        -0.1800 
      2 C2          1.1889    0.2673    0.0976 C.3       1 UNK         0.0800 
      3 N3          2.4013   -0.5433    0.0693 N.3       1 UNK        -0.7800 
      4 C4          3.6271    0.2482    0.0943 C.3       1 UNK         0.0800 
      5 C5          4.8656   -0.6555    0.0825 C.3       1 UNK         0.1450 
      6 O6          6.0309    0.1393    0.1153 O.3       1 UNK        -0.6830 
      7 H7         -0.9652   -0.0080    0.1191 H         1 UNK         0.0600 
      8 H8         -0.1025   -1.2445   -0.7904 H         1 UNK         0.0600 
      9 H9         -0.0829   -1.2697    0.9737 H         1 UNK         0.0600 
     10 H10         1.1633    0.9334   -0.7657 H         1 UNK         0.0600 
     11 H11         1.1832    0.9019    0.9846 H         1 UNK         0.0600 
     12 H12         2.3967   -1.1918    0.8503 H         1 UNK         0.3800 
     13 H13         3.6547    0.9199   -0.7647 H         1 UNK         0.0600 
     14 H14         3.6457    0.8769    0.9856 H         1 UNK         0.0600 
     15 H15         4.8667   -1.3235    0.9445 H         1 UNK         0.0600 
     16 H16         4.8823   -1.2754   -0.8147 H         1 UNK         0.0600 
     17 H17         6.7849   -0.4304    0.0988 H         1 UNK         0.4180 
@<TRIPOS>BOND
     1    1    2 1    
     2    1    7 1    
     3    1    8 1    
     4    1    9 1    
     5    2    3 1    
     6    2   10 1    
     7    2   11 1    
     8    3    4 1    
     9    3   12 1    
    10    4    5 1    
    11    4   13 1    
    12    4   14 1    
    13    5    6 1    
    14    5   15 1    
    15    5   16 1    
    16    6   17 1    
@<TRIPOS>SUBSTRUCTURE
     1 UNK         1 GROUP             0       ****    0 ROOT    
