@<TRIPOS>MOLECULE
title: molecule 1
22   21    1
SMALL
USER_CHARGES


@<TRIPOS>ATOM
      1 C1         -0.2714   -1.9744    0.1169 C.3       1 UNK        -0.1800 
      2 C2          0.9928   -1.1079    0.1026 C.3       1 UNK        -0.1200 
      3 C3          2.2808   -1.9438    0.1092 C.3       1 UNK        -0.1200 
      4 C4          3.5471   -1.0762    0.0948 C.3       1 UNK        -0.1200 
      5 C5          4.8318   -1.9233    0.1016 C.3       1 UNK        -0.1200 
      6 C6          6.1183   -1.0935    0.0876 C.2       1 UNK         0.4700 
      7 O7          6.1088    0.1368    0.0724 O.2       1 UNK        -0.4700 
      8 C8          7.4311   -1.8658    0.0934 C.3       1 UNK        -0.1800 
      9 H9         -1.1677   -1.3537    0.1118 H         1 UNK         0.0600 
     10 H10        -0.3128   -2.6254   -0.7567 H         1 UNK         0.0600 
     11 H11        -0.3077   -2.6035    1.0067 H         1 UNK         0.0600 
     12 H12         0.9774   -0.4658   -0.7788 H         1 UNK         0.0600 
     13 H13         0.9824   -0.4441    0.9679 H         1 UNK         0.0600 
     14 H14         2.2917   -2.5860    0.9908 H         1 UNK         0.0600 
     15 H15         2.2866   -2.6076   -0.7563 H         1 UNK         0.0600 
     16 H16         3.5341   -0.4348   -0.7878 H         1 UNK         0.0600 
     17 H17         3.5392   -0.4131    0.9612 H         1 UNK         0.0600 
     18 H18         4.8470   -2.5624    0.9846 H         1 UNK         0.0600 
     19 H19         4.8420   -2.5841   -0.7654 H         1 UNK         0.0600 
     20 H20         8.2789   -1.1805    0.0824 H         1 UNK         0.0600 
     21 H21         7.5004   -2.4873    0.9861 H         1 UNK         0.0600 
     22 H22         7.4953   -2.5092   -0.7841 H         1 UNK         0.0600 
@<TRIPOS>BOND
     1    1    2 1    
     2    1    9 1    
     3    1   10 1    
     4    1   11 1    
     5    2    3 1    
     6    2   12 1    
     7    2   13 1    
     8    3    4 1    
     9    3   14 1    
    10    3   15 1    
    11    4    5 1    
    12    4   16 1    
    13    4   17 1    
    14    5    6 1    
    15    5   18 1    
    16    5   19 1    
    17    6    7 2    
    18    6    8 1    
    19    8   20 1    
    20    8   21 1    
    21    8   22 1    
@<TRIPOS>SUBSTRUCTURE
     1 UNK         1 GROUP             0       ****    0 ROOT    
