@<TRIPOS>MOLECULE
title: molecule 1
16   16    1
SMALL
USER_CHARGES


@<TRIPOS>ATOM
      1 C1         -0.5723   -1.1525    0.0232 C.2       1 UNK        -0.1150 
      2 C2          0.7664   -1.1714    0.1441 C.2       1 UNK        -0.1150 
      3 C3         -1.3888    0.1265   -0.0400 C.3       1 UNK        -0.1200 
      4 C4          1.6170    0.0841    0.2253 C.3       1 UNK        -0.1200 
      5 C5         -0.5770    1.3596    0.3997 C.3       1 UNK        -0.1200 
      6 C6          0.8388    1.3448   -0.1966 C.3       1 UNK        -0.1200 
      7 H7         -1.1181   -2.0822   -0.0450 H         1 UNK         0.1150 
      8 H8          1.2870   -2.1163    0.1989 H         1 UNK         0.1150 
      9 H9         -2.2734    0.0211    0.5884 H         1 UNK         0.0600 
     10 H10        -1.7399    0.2519   -1.0647 H         1 UNK         0.0600 
     11 H11         2.4986   -0.0360   -0.4047 H         1 UNK         0.0600 
     12 H12         1.9711    0.1854    1.2516 H         1 UNK         0.0600 
     13 H13        -0.5040    1.3765    1.4879 H         1 UNK         0.0600 
     14 H14        -1.1009    2.2717    0.1125 H         1 UNK         0.0600 
     15 H15         0.7665    1.3791   -1.2845 H         1 UNK         0.0600 
     16 H16         1.3869    2.2383    0.1035 H         1 UNK         0.0600 
@<TRIPOS>BOND
     1    1    2 2    
     2    1    3 1    
     3    1    7 1    
     4    2    4 1    
     5    2    8 1    
     6    3    5 1    
     7    3    9 1    
     8    3   10 1    
     9    4    6 1    
    10    4   11 1    
    11    4   12 1    
    12    5    6 1    
    13    5   13 1    
    14    5   14 1    
    15    6   15 1    
    16    6   16 1    
@<TRIPOS>SUBSTRUCTURE
     1 UNK         1 GROUP             0       ****    0 ROOT    
