@<TRIPOS>MOLECULE
title: molecule 1
20   19    1
SMALL
USER_CHARGES


@<TRIPOS>ATOM
      1 C1          1.1555   -2.0357    0.0357 C.2       1 UNK         0.5100 
      2 O2          1.0360   -3.1550   -0.4630 O.2       1 UNK        -0.4300 
      3 O3          2.3114   -1.4134    0.3107 O.3       1 UNK        -0.3300 
      4 C4         -0.0591   -1.1979    0.4117 C.3       1 UNK        -0.1800 
      5 C5          3.5411   -2.0582    0.0180 C.3       1 UNK         0.1900 
      6 C6          4.7202   -1.1394    0.3775 C.3       1 UNK        -0.0600 
      7 C7          6.0493   -1.9023    0.2869 C.3       1 UNK        -0.1800 
      8 C8          4.7519    0.1173   -0.5070 C.3       1 UNK        -0.1800 
      9 H9         -0.9800   -1.7275    0.1670 H         1 UNK         0.0600 
     10 H10        -0.0558   -0.9853    1.4808 H         1 UNK         0.0600 
     11 H11        -0.0492   -0.2524   -0.1308 H         1 UNK         0.0600 
     12 H12         3.6013   -2.9831    0.5935 H         1 UNK         0.0300 
     13 H13         3.5813   -2.3292   -1.0381 H         1 UNK         0.0300 
     14 H14         4.5962   -0.8210    1.4135 H         1 UNK         0.0600 
     15 H15         6.8874   -1.2692    0.5795 H         1 UNK         0.0600 
     16 H16         6.0493   -2.7714    0.9455 H         1 UNK         0.0600 
     17 H17         6.2360   -2.2542   -0.7283 H         1 UNK         0.0600 
     18 H18         5.5820    0.7692   -0.2334 H         1 UNK         0.0600 
     19 H19         4.8657   -0.1424   -1.5599 H         1 UNK         0.0600 
     20 H20         3.8347    0.6979   -0.4052 H         1 UNK         0.0600 
@<TRIPOS>BOND
     1    1    2 2    
     2    1    3 1    
     3    1    4 1    
     4    3    5 1    
     5    4    9 1    
     6    4   10 1    
     7    4   11 1    
     8    5    6 1    
     9    5   12 1    
    10    5   13 1    
    11    6    7 1    
    12    6    8 1    
    13    6   14 1    
    14    7   15 1    
    15    7   16 1    
    16    7   17 1    
    17    8   18 1    
    18    8   19 1    
    19    8   20 1    
@<TRIPOS>SUBSTRUCTURE
     1 UNK         1 GROUP             0       ****    0 ROOT    
