@<TRIPOS>MOLECULE
title: molecule 1
32   31    1
SMALL
USER_CHARGES


@<TRIPOS>ATOM
      1 C1          0.6934   -1.0707    0.2063 C.2       1 UNK         0.5200 
      2 C2          2.0767   -0.4220    0.1758 C.3       1 UNK        -0.1200 
      3 O3          0.3887   -1.6658   -0.9823 O.3       1 UNK        -0.5300 
      4 O4         -0.0413   -1.0438    1.1906 O.2       1 UNK        -0.4400 
      5 C5          3.2066   -1.4655    0.1814 C.3       1 UNK        -0.1200 
      6 C6          4.6000   -0.8202    0.1810 C.3       1 UNK        -0.1200 
      7 C7          5.7310   -1.8590    0.1864 C.3       1 UNK        -0.1200 
      8 C8          7.1244   -1.2136    0.1860 C.3       1 UNK        -0.1200 
      9 C9          8.2554   -2.2524    0.1916 C.3       1 UNK        -0.1200 
     10 C10         9.6489   -1.6071    0.1912 C.3       1 UNK        -0.1200 
     11 C11        10.7787   -2.6506    0.1966 C.3       1 UNK        -0.1200 
     12 C12        12.1619   -2.0017    0.2262 C.2       1 UNK         0.5200 
     13 O13        12.4701   -1.4155   -0.9659 O.3       1 UNK        -0.5300 
     14 O14        12.8938   -2.0213    1.2129 O.2       1 UNK        -0.4400 
     15 H15         2.1502    0.2102   -0.7099 H         1 UNK         0.0600 
     16 H16         2.1729    0.2374    1.0392 H         1 UNK         0.0600 
     17 H17        -0.4663   -2.0674   -0.9707 H         1 UNK         0.4500 
     18 H18         3.1066   -2.1076    1.0579 H         1 UNK         0.0600 
     19 H19         3.1122   -2.1159   -0.6895 H         1 UNK         0.0600 
     20 H20         4.7016   -0.1782   -0.6950 H         1 UNK         0.0600 
     21 H21         4.6994   -0.1716    1.0523 H         1 UNK         0.0600 
     22 H22         5.6292   -2.5010    1.0623 H         1 UNK         0.0600 
     23 H23         5.6317   -2.5076   -0.6849 H         1 UNK         0.0600 
     24 H24         7.2262   -0.5715   -0.6898 H         1 UNK         0.0600 
     25 H25         7.2237   -0.5650    1.0574 H         1 UNK         0.0600 
     26 H26         8.1535   -2.8945    1.0674 H         1 UNK         0.0600 
     27 H27         8.1564   -2.9009   -0.6799 H         1 UNK         0.0600 
     28 H28         9.7457   -0.9632   -0.6843 H         1 UNK         0.0600 
     29 H29         9.7464   -0.9585    1.0632 H         1 UNK         0.0600 
     30 H30        10.6800   -3.3036    1.0647 H         1 UNK         0.0600 
     31 H31        10.7077   -3.2894   -0.6846 H         1 UNK         0.0600 
     32 H32        13.3251   -1.0138   -0.9548 H         1 UNK         0.4500 
@<TRIPOS>BOND
     1    1    2 1    
     2    1    3 1    
     3    1    4 2    
     4    2    5 1    
     5    2   15 1    
     6    2   16 1    
     7    3   17 1    
     8    5    6 1    
     9    5   18 1    
    10    5   19 1    
    11    6    7 1    
    12    6   20 1    
    13    6   21 1    
    14    7    8 1    
    15    7   22 1    
    16    7   23 1    
    17    8    9 1    
    18    8   24 1    
    19    8   25 1    
    20    9   10 1    
    21    9   26 1    
    22    9   27 1    
    23   10   11 1    
    24   10   28 1    
    25   10   29 1    
    26   11   12 1    
    27   11   30 1    
    28   11   31 1    
    29   12   13 1    
    30   12   14 2    
    31   13   32 1    
@<TRIPOS>SUBSTRUCTURE
     1 UNK         1 GROUP             0       ****    0 ROOT    
