@<TRIPOS>MOLECULE
title: molecule 1
21   20    1
SMALL
USER_CHARGES


@<TRIPOS>ATOM
      1 C1          7.4930   -0.7459    0.1050 C.3       1 UNK        -0.1800 
      2 C2          6.3012    0.2177    0.1066 C.3       1 UNK        -0.1200 
      3 C3          4.9531   -0.5134    0.1013 C.3       1 UNK         0.0475 
      4 S4          3.5648    0.6524    0.1033 S.3       1 UNK        -0.3350 
      5 C5          2.1826   -0.5206    0.0961 C.3       1 UNK         0.0475 
      6 C6          0.8307    0.2034    0.0965 C.3       1 UNK        -0.1200 
      7 C7         -0.3560   -0.7664    0.0905 C.3       1 UNK        -0.1800 
      8 H8          8.4355   -0.1978    0.1089 H         1 UNK         0.0600 
      9 H9          7.4795   -1.3905    0.9843 H         1 UNK         0.0600 
     10 H10         7.4828   -1.3835   -0.7793 H         1 UNK         0.0600 
     11 H11         6.3625    0.8641    0.9829 H         1 UNK         0.0600 
     12 H12         6.3657    0.8710   -0.7642 H         1 UNK         0.0600 
     13 H13         4.8739   -1.1518   -0.7792 H         1 UNK         0.0600 
     14 H14         4.8707   -1.1587    0.9764 H         1 UNK         0.0600 
     15 H15         2.2684   -1.1586   -0.7841 H         1 UNK         0.0600 
     16 H16         2.2652   -1.1656    0.9716 H         1 UNK         0.0600 
     17 H17         0.7628    0.8495    0.9725 H         1 UNK         0.0600 
     18 H18         0.7660    0.8564   -0.7746 H         1 UNK         0.0600 
     19 H19        -1.3013   -0.2232    0.0909 H         1 UNK         0.0600 
     20 H20        -0.3392   -1.4040   -0.7939 H         1 UNK         0.0600 
     21 H21        -0.3424   -1.4109    0.9698 H         1 UNK         0.0600 
@<TRIPOS>BOND
     1    1    2 1    
     2    1    8 1    
     3    1    9 1    
     4    1   10 1    
     5    2    3 1    
     6    2   11 1    
     7    2   12 1    
     8    3    4 1    
     9    3   13 1    
    10    3   14 1    
    11    4    5 1    
    12    5    6 1    
    13    5   15 1    
    14    5   16 1    
    15    6    7 1    
    16    6   17 1    
    17    6   18 1    
    18    7   19 1    
    19    7   20 1    
    20    7   21 1    
@<TRIPOS>SUBSTRUCTURE
     1 UNK         1 GROUP             0       ****    0 ROOT    
