@<TRIPOS>MOLECULE
title: molecule 1
30   29    1
SMALL
USER_CHARGES


@<TRIPOS>ATOM
      1 O1         -4.2219   -0.3504    0.6822 O.3       1 UNK        -0.3300 
      2 C2         -3.3028    0.1136   -0.1807 C.2       1 UNK         0.5100 
      3 C3         -5.5256   -0.6604    0.2200 C.3       1 UNK         0.1600 
      4 O4         -3.5029    0.2996   -1.3829 O.2       1 UNK        -0.4300 
      5 C5         -2.0238    0.3706    0.4997 C.2       1 UNK        -0.1150 
      6 C6         -0.9519    0.8408   -0.1630 C.2       1 UNK        -0.1150 
      7 C7          0.3898    1.1254    0.4799 C.3       1 UNK        -0.1200 
      8 C8          1.5187    0.3065   -0.1612 C.3       1 UNK        -0.1200 
      9 C9          2.8867    0.5901    0.4762 C.3       1 UNK        -0.1200 
     10 C10         4.0169   -0.2291   -0.1640 C.3       1 UNK        -0.1200 
     11 C11         5.3848    0.0543    0.4733 C.3       1 UNK        -0.1200 
     12 C12         6.5127   -0.7634   -0.1657 C.3       1 UNK        -0.1800 
     13 H13        -6.1362   -1.0211    1.0477 H         1 UNK         0.0300 
     14 H14        -6.0094    0.2221   -0.2005 H         1 UNK         0.0300 
     15 H15        -5.4930   -1.4386   -0.5434 H         1 UNK         0.0300 
     16 H16        -1.9629    0.1699    1.5598 H         1 UNK         0.1150 
     17 H17        -1.0128    1.0425   -1.2234 H         1 UNK         0.1150 
     18 H18         0.5975    2.1911    0.3787 H         1 UNK         0.0600 
     19 H19         0.3363    0.9150    1.5489 H         1 UNK         0.0600 
     20 H20         1.2903   -0.7565   -0.0719 H         1 UNK         0.0600 
     21 H21         1.5645    0.5238   -1.2292 H         1 UNK         0.0600 
     22 H22         3.1143    1.6531    0.3875 H         1 UNK         0.0600 
     23 H23         2.8411    0.3722    1.5440 H         1 UNK         0.0600 
     24 H24         3.7893   -1.2922   -0.0755 H         1 UNK         0.0600 
     25 H25         4.0627   -0.0113   -1.2318 H         1 UNK         0.0600 
     26 H26         5.6171    1.1162    0.3847 H         1 UNK         0.0600 
     27 H27         5.3438   -0.1645    1.5409 H         1 UNK         0.0600 
     28 H28         7.4696   -0.5409    0.3069 H         1 UNK         0.0600 
     29 H29         6.3313   -1.8334   -0.0617 H         1 UNK         0.0600 
     30 H30         6.6072   -0.5405   -1.2289 H         1 UNK         0.0600 
@<TRIPOS>BOND
     1    1    2 1    
     2    1    3 1    
     3    2    4 2    
     4    2    5 1    
     5    3   13 1    
     6    3   14 1    
     7    3   15 1    
     8    5    6 2    
     9    5   16 1    
    10    6    7 1    
    11    6   17 1    
    12    7    8 1    
    13    7   18 1    
    14    7   19 1    
    15    8    9 1    
    16    8   20 1    
    17    8   21 1    
    18    9   10 1    
    19    9   22 1    
    20    9   23 1    
    21   10   11 1    
    22   10   24 1    
    23   10   25 1    
    24   11   12 1    
    25   11   26 1    
    26   11   27 1    
    27   12   28 1    
    28   12   29 1    
    29   12   30 1    
@<TRIPOS>SUBSTRUCTURE
     1 UNK         1 GROUP             0       ****    0 ROOT    
