@<TRIPOS>MOLECULE
title: molecule 1
22   21    1
SMALL
USER_CHARGES


@<TRIPOS>ATOM
      1 O1          0.5496   -0.3087    1.0693 O.3       1 UNK        -0.6830 
      2 C2          0.9855   -0.3554   -0.2731 C.3       1 UNK         0.1450 
      3 C3          2.2653    0.4725   -0.4444 C.3       1 UNK         0.1400 
      4 O4          3.3862   -0.3207   -0.0885 O.3       1 UNK        -0.4000 
      5 C5          4.6144    0.3753   -0.2176 C.3       1 UNK         0.1400 
      6 C6          5.7590   -0.5602    0.1889 C.3       1 UNK        -0.1200 
      7 C7          7.1362    0.1101    0.0815 C.3       1 UNK        -0.1200 
      8 C8          8.2799   -0.8257    0.4882 C.3       1 UNK        -0.1800 
      9 H9         -0.2355   -0.8286    1.1498 H         1 UNK         0.4180 
     10 H10         1.1349   -1.3873   -0.5924 H         1 UNK         0.0600 
     11 H11         0.1909    0.0625   -0.8919 H         1 UNK         0.0600 
     12 H12         2.3651    0.7622   -1.4916 H         1 UNK         0.0300 
     13 H13         2.2212    1.3916    0.1427 H         1 UNK         0.0300 
     14 H14         4.7495    0.7082   -1.2479 H         1 UNK         0.0300 
     15 H15         4.6099    1.2615    0.4191 H         1 UNK         0.0300 
     16 H16         5.5981   -0.9013    1.2123 H         1 UNK         0.0600 
     17 H17         5.7365   -1.4506   -0.4405 H         1 UNK         0.0600 
     18 H18         7.2983    0.4514   -0.9415 H         1 UNK         0.0600 
     19 H19         7.1599    1.0003    0.7111 H         1 UNK         0.0600 
     20 H20         9.2431   -0.3224    0.4016 H         1 UNK         0.0600 
     21 H21         8.1696   -1.1571    1.5211 H         1 UNK         0.0600 
     22 H22         8.3093   -1.7113   -0.1473 H         1 UNK         0.0600 
@<TRIPOS>BOND
     1    1    2 1    
     2    1    9 1    
     3    2    3 1    
     4    2   10 1    
     5    2   11 1    
     6    3    4 1    
     7    3   12 1    
     8    3   13 1    
     9    4    5 1    
    10    5    6 1    
    11    5   14 1    
    12    5   15 1    
    13    6    7 1    
    14    6   16 1    
    15    6   17 1    
    16    7    8 1    
    17    7   18 1    
    18    7   19 1    
    19    8   20 1    
    20    8   21 1    
    21    8   22 1    
@<TRIPOS>SUBSTRUCTURE
     1 UNK         1 GROUP             0       ****    0 ROOT    
