@<TRIPOS>MOLECULE
title: molecule 1
25   24    1
SMALL
USER_CHARGES


@<TRIPOS>ATOM
      1 O1          8.4170   -1.6654    0.1032 O.2       1 UNK        -0.2225 
      2 C2          7.9281   -0.5366    0.1031 C.2       1 UNK         0.3750 
      3 C3          6.4274   -0.2392    0.1036 C.3       1 UNK        -0.1200 
      4 Cl4         8.9511    0.9635    0.1024 Cl        1 UNK        -0.1525 
      5 C5          5.5536   -1.5065    0.1034 C.3       1 UNK        -0.1200 
      6 C6          4.0525   -1.1825    0.1039 C.3       1 UNK        -0.1200 
      7 C7          3.1770   -2.4441    0.1036 C.3       1 UNK        -0.1200 
      8 C8          1.6759   -2.1201    0.1041 C.3       1 UNK        -0.1200 
      9 C9          0.8002   -3.3815    0.1038 C.3       1 UNK        -0.1200 
     10 C10        -0.6979   -3.0580    0.1043 C.3       1 UNK        -0.1800 
     11 H11         6.1999    0.3693    0.9794 H         1 UNK         0.0600 
     12 H12         6.1995    0.3699   -0.7716 H         1 UNK         0.0600 
     13 H13         5.7892   -2.1150   -0.7711 H         1 UNK         0.0600 
     14 H14         5.7896   -2.1156    0.9774 H         1 UNK         0.0600 
     15 H15         3.8131   -0.5753    0.9777 H         1 UNK         0.0600 
     16 H16         3.8127   -0.5747   -0.7695 H         1 UNK         0.0600 
     17 H17         3.4164   -3.0514   -0.7703 H         1 UNK         0.0600 
     18 H18         3.4168   -3.0520    0.9769 H         1 UNK         0.0600 
     19 H19         1.4361   -1.5130    0.9780 H         1 UNK         0.0600 
     20 H20         1.4357   -1.5123   -0.7692 H         1 UNK         0.0600 
     21 H21         1.0353   -3.9903   -0.7700 H         1 UNK         0.0600 
     22 H22         1.0358   -3.9910    0.9769 H         1 UNK         0.0600 
     23 H23        -1.2926   -3.9717    0.1041 H         1 UNK         0.0600 
     24 H24        -0.9760   -2.4806    0.9864 H         1 UNK         0.0600 
     25 H25        -0.9765   -2.4798   -0.7771 H         1 UNK         0.0600 
@<TRIPOS>BOND
     1    1    2 2    
     2    2    3 1    
     3    2    4 1    
     4    3    5 1    
     5    3   11 1    
     6    3   12 1    
     7    5    6 1    
     8    5   13 1    
     9    5   14 1    
    10    6    7 1    
    11    6   15 1    
    12    6   16 1    
    13    7    8 1    
    14    7   17 1    
    15    7   18 1    
    16    8    9 1    
    17    8   19 1    
    18    8   20 1    
    19    9   10 1    
    20    9   21 1    
    21    9   22 1    
    22   10   23 1    
    23   10   24 1    
    24   10   25 1    
@<TRIPOS>SUBSTRUCTURE
     1 UNK         1 GROUP             0       ****    0 ROOT    
