@<TRIPOS>MOLECULE
title: molecule 1
15   14    1
SMALL
USER_CHARGES


@<TRIPOS>ATOM
      1 C1         -2.7881    0.1575   -0.2647 C.2       1 UNK        -0.2300 
      2 C2         -1.7017    0.3999    0.4841 C.2       1 UNK        -0.1150 
      3 C3         -0.4214   -0.4075    0.4258 C.3       1 UNK        -0.1200 
      4 C4          0.7902    0.4610    0.0611 C.3       1 UNK        -0.0095 
      5 C5          2.0932   -0.3443    0.0061 C.3       1 UNK        -0.1994 
      6 Br6         3.6028    0.8614   -0.4725 Br        1 UNK        -0.2039 
      7 H7         -3.6721    0.7715   -0.1743 H         1 UNK         0.1150 
      8 H8         -2.8106   -0.6547   -0.9766 H         1 UNK         0.1150 
      9 H9         -1.7181    1.2212    1.1858 H         1 UNK         0.1150 
     10 H10        -0.2670   -0.8736    1.3995 H         1 UNK         0.0600 
     11 H11        -0.5320   -1.2170   -0.2971 H         1 UNK         0.0600 
     12 H12         0.6199    0.9367   -0.9056 H         1 UNK         0.0600 
     13 H13         0.8957    1.2666    0.7888 H         1 UNK         0.0600 
     14 H14         2.3229   -0.8011    0.9691 H         1 UNK         0.1464 
     15 H15         2.0451   -1.1334   -0.7448 H         1 UNK         0.1464 
@<TRIPOS>BOND
     1    1    2 2    
     2    1    7 1    
     3    1    8 1    
     4    2    3 1    
     5    2    9 1    
     6    3    4 1    
     7    3   10 1    
     8    3   11 1    
     9    4    5 1    
    10    4   12 1    
    11    4   13 1    
    12    5    6 1    
    13    5   14 1    
    14    5   15 1    
@<TRIPOS>SUBSTRUCTURE
     1 UNK         1 GROUP             0       ****    0 ROOT    
