@<TRIPOS>MOLECULE
title: molecule 1
37   36    1
SMALL
USER_CHARGES


@<TRIPOS>ATOM
      1 C1         -0.6101   -0.5766    0.0956 C.3       1 UNK        -0.1800 
      2 C2          0.6735    0.2605    0.1168 C.3       1 UNK        -0.1200 
      3 C3          1.9421   -0.6043    0.0948 C.3       1 UNK        -0.1200 
      4 C4          3.2283    0.2344    0.1161 C.3       1 UNK        -0.1200 
      5 C5          4.4970   -0.6305    0.0950 C.3       1 UNK        -0.1200 
      6 C6          5.7832    0.2083    0.1162 C.3       1 UNK        -0.1200 
      7 C7          7.0519   -0.6568    0.0958 C.3       1 UNK        -0.1200 
      8 C8          8.3381    0.1820    0.1163 C.3       1 UNK        -0.1200 
      9 C9          9.6067   -0.6833    0.0965 C.3       1 UNK        -0.1200 
     10 C10        10.8929    0.1545    0.1169 C.3       1 UNK        -0.1200 
     11 C11        12.1555   -0.7204    0.0982 C.3       1 UNK        -0.1200 
     12 C12        13.4339    0.1122    0.1201 C.2       1 UNK         0.4500 
     13 O13        14.5351   -0.4330    0.1473 O.2       1 UNK        -0.4500 
     14 H14        -1.4920    0.0642    0.1120 H         1 UNK         0.0600 
     15 H15        -0.6637   -1.1929   -0.8022 H         1 UNK         0.0600 
     16 H16        -0.6635   -1.2380    0.9607 H         1 UNK         0.0600 
     17 H17         0.6756    0.9356   -0.7398 H         1 UNK         0.0600 
     18 H18         0.6757    0.8912    1.0066 H         1 UNK         0.0600 
     19 H19         1.9351   -1.2794    0.9515 H         1 UNK         0.0600 
     20 H20         1.9352   -1.2350   -0.7951 H         1 UNK         0.0600 
     21 H21         3.2353    0.9091   -0.7409 H         1 UNK         0.0600 
     22 H22         3.2347    0.8655    1.0058 H         1 UNK         0.0600 
     23 H23         4.4901   -1.3051    0.9522 H         1 UNK         0.0600 
     24 H24         4.4906   -1.2618   -0.7945 H         1 UNK         0.0600 
     25 H25         5.7903    0.8825   -0.7412 H         1 UNK         0.0600 
     26 H26         5.7894    0.8398    1.0055 H         1 UNK         0.0600 
     27 H27         7.0448   -1.3306    0.9535 H         1 UNK         0.0600 
     28 H28         7.0453   -1.2887   -0.7932 H         1 UNK         0.0600 
     29 H29         8.3451    0.8555   -0.7417 H         1 UNK         0.0600 
     30 H30         8.3443    0.8142    1.0051 H         1 UNK         0.0600 
     31 H31         9.5997   -1.3568    0.9545 H         1 UNK         0.0600 
     32 H32         9.6006   -1.3157   -0.7922 H         1 UNK         0.0600 
     33 H33        10.8990    0.8270   -0.7423 H         1 UNK         0.0600 
     34 H34        10.8974    0.7869    1.0061 H         1 UNK         0.0600 
     35 H35        12.1613   -1.3892    0.9593 H         1 UNK         0.0600 
     36 H36        12.1645   -1.3476   -0.7935 H         1 UNK         0.0600 
     37 H37        13.3009    1.1944    0.1092 H         1 UNK         0.0000 
@<TRIPOS>BOND
     1    1    2 1    
     2    1   14 1    
     3    1   15 1    
     4    1   16 1    
     5    2    3 1    
     6    2   17 1    
     7    2   18 1    
     8    3    4 1    
     9    3   19 1    
    10    3   20 1    
    11    4    5 1    
    12    4   21 1    
    13    4   22 1    
    14    5    6 1    
    15    5   23 1    
    16    5   24 1    
    17    6    7 1    
    18    6   25 1    
    19    6   26 1    
    20    7    8 1    
    21    7   27 1    
    22    7   28 1    
    23    8    9 1    
    24    8   29 1    
    25    8   30 1    
    26    9   10 1    
    27    9   31 1    
    28    9   32 1    
    29   10   11 1    
    30   10   33 1    
    31   10   34 1    
    32   11   12 1    
    33   11   35 1    
    34   11   36 1    
    35   12   13 2    
    36   12   37 1    
@<TRIPOS>SUBSTRUCTURE
     1 UNK         1 GROUP             0       ****    0 ROOT    
