@<TRIPOS>MOLECULE
title: molecule 1
42   41    1
SMALL
USER_CHARGES


@<TRIPOS>ATOM
      1 C1         -0.6754   -0.6209    0.0984 C.3       1 UNK        -0.1800 
      2 C2          0.6006    0.2280    0.1003 C.3       1 UNK        -0.1200 
      3 C3          1.8769   -0.6257    0.1016 C.3       1 UNK        -0.1200 
      4 C4          3.1555    0.2248    0.1035 C.3       1 UNK        -0.1200 
      5 C5          4.4319   -0.6291    0.1048 C.3       1 UNK        -0.1200 
      6 C6          5.7105    0.2213    0.1067 C.3       1 UNK        -0.1200 
      7 C7          6.9868   -0.6326    0.1080 C.3       1 UNK        -0.1200 
      8 C8          8.2654    0.2179    0.1099 C.3       1 UNK        -0.1200 
      9 C9          9.5417   -0.6360    0.1113 C.3       1 UNK        -0.1200 
     10 C10        10.8203    0.2145    0.1132 C.3       1 UNK        -0.1200 
     11 C11        12.0967   -0.6394    0.1145 C.3       1 UNK        -0.1200 
     12 C12        13.3754    0.2109    0.1164 C.3       1 UNK        -0.1200 
     13 C13        14.6495   -0.6440    0.1177 C.3       1 UNK         0.1450 
     14 O14        15.7859    0.1929    0.1195 O.3       1 UNK        -0.6830 
     15 H15        -1.5631    0.0120    0.0975 H         1 UNK         0.0600 
     16 H16        -0.7221   -1.2602   -0.7836 H         1 UNK         0.0600 
     17 H17        -0.7243   -1.2608    0.9799 H         1 UNK         0.0600 
     18 H18         0.5979    0.8814   -0.7729 H         1 UNK         0.0600 
     19 H19         0.5958    0.8808    0.9740 H         1 UNK         0.0600 
     20 H20         1.8747   -1.2791    0.9750 H         1 UNK         0.0600 
     21 H21         1.8769   -1.2785   -0.7722 H         1 UNK         0.0600 
     22 H22         3.1575    0.8782   -0.7699 H         1 UNK         0.0600 
     23 H23         3.1553    0.8776    0.9774 H         1 UNK         0.0600 
     24 H24         4.4299   -1.2826    0.9782 H         1 UNK         0.0600 
     25 H25         4.4321   -1.2820   -0.7690 H         1 UNK         0.0600 
     26 H26         5.7125    0.8748   -0.7667 H         1 UNK         0.0600 
     27 H27         5.7103    0.8742    0.9806 H         1 UNK         0.0600 
     28 H28         6.9848   -1.2860    0.9814 H         1 UNK         0.0600 
     29 H29         6.9870   -1.2854   -0.7658 H         1 UNK         0.0600 
     30 H30         8.2674    0.8713   -0.7634 H         1 UNK         0.0600 
     31 H31         8.2652    0.8707    0.9838 H         1 UNK         0.0600 
     32 H32         9.5397   -1.2894    0.9847 H         1 UNK         0.0600 
     33 H33         9.5419   -1.2888   -0.7626 H         1 UNK         0.0600 
     34 H34        10.8222    0.8680   -0.7602 H         1 UNK         0.0600 
     35 H35        10.8200    0.8674    0.9870 H         1 UNK         0.0600 
     36 H36        12.0949   -1.2927    0.9879 H         1 UNK         0.0600 
     37 H37        12.0971   -1.2921   -0.7594 H         1 UNK         0.0600 
     38 H38        13.3779    0.8642   -0.7572 H         1 UNK         0.0600 
     39 H39        13.3757    0.8637    0.9905 H         1 UNK         0.0600 
     40 H40        14.6805   -1.2882    0.9970 H         1 UNK         0.0600 
     41 H41        14.6827   -1.2876   -0.7619 H         1 UNK         0.0600 
     42 H42        16.5602   -0.3491    0.1202 H         1 UNK         0.4180 
@<TRIPOS>BOND
     1    1    2 1    
     2    1   15 1    
     3    1   16 1    
     4    1   17 1    
     5    2    3 1    
     6    2   18 1    
     7    2   19 1    
     8    3    4 1    
     9    3   20 1    
    10    3   21 1    
    11    4    5 1    
    12    4   22 1    
    13    4   23 1    
    14    5    6 1    
    15    5   24 1    
    16    5   25 1    
    17    6    7 1    
    18    6   26 1    
    19    6   27 1    
    20    7    8 1    
    21    7   28 1    
    22    7   29 1    
    23    8    9 1    
    24    8   30 1    
    25    8   31 1    
    26    9   10 1    
    27    9   32 1    
    28    9   33 1    
    29   10   11 1    
    30   10   34 1    
    31   10   35 1    
    32   11   12 1    
    33   11   36 1    
    34   11   37 1    
    35   12   13 1    
    36   12   38 1    
    37   12   39 1    
    38   13   14 1    
    39   13   40 1    
    40   13   41 1    
    41   14   42 1    
@<TRIPOS>SUBSTRUCTURE
     1 UNK         1 GROUP             0       ****    0 ROOT    
