@<TRIPOS>MOLECULE
title: molecule 1
31   30    1
SMALL
USER_CHARGES


@<TRIPOS>ATOM
      1 C1         -0.4921   -0.5855    0.1181 C.3       1 UNK        -0.1800 
      2 C2          0.7916    0.2518    0.1066 C.3       1 UNK        -0.1200 
      3 C3          2.0601   -0.6134    0.1165 C.3       1 UNK        -0.1200 
      4 C4          3.3464    0.2254    0.1050 C.3       1 UNK        -0.1200 
      5 C5          4.6149   -0.6400    0.1149 C.3       1 UNK        -0.1200 
      6 C6          5.9012    0.1988    0.1033 C.3       1 UNK        -0.1200 
      7 C7          7.1697   -0.6667    0.1133 C.3       1 UNK        -0.1200 
      8 C8          8.4559    0.1712    0.1017 C.3       1 UNK        -0.1200 
      9 C9          9.7184   -0.7038    0.1118 C.3       1 UNK        -0.1200 
     10 C10        10.9968    0.1291    0.1004 C.2       1 UNK         0.4500 
     11 O11        12.0984   -0.4157    0.1068 O.2       1 UNK        -0.4500 
     12 H12        -1.3740    0.0554    0.1107 H         1 UNK         0.0600 
     13 H13        -0.5463   -1.2357   -0.7555 H         1 UNK         0.0600 
     14 H14        -0.5449   -1.2134    1.0079 H         1 UNK         0.0600 
     15 H15         0.7930    0.8938   -0.7750 H         1 UNK         0.0600 
     16 H16         0.7944    0.9158    0.9717 H         1 UNK         0.0600 
     17 H17         2.0537   -1.2554    0.9983 H         1 UNK         0.0600 
     18 H18         2.0524   -1.2775   -0.7487 H         1 UNK         0.0600 
     19 H19         3.3525    0.8674   -0.7768 H         1 UNK         0.0600 
     20 H20         3.3538    0.8895    0.9703 H         1 UNK         0.0600 
     21 H21         4.6087   -1.2820    0.9967 H         1 UNK         0.0600 
     22 H22         4.6074   -1.3040   -0.7504 H         1 UNK         0.0600 
     23 H23         5.9072    0.8408   -0.7784 H         1 UNK         0.0600 
     24 H24         5.9085    0.8628    0.9686 H         1 UNK         0.0600 
     25 H25         7.1638   -1.3088    0.9951 H         1 UNK         0.0600 
     26 H26         7.1625   -1.3308   -0.7520 H         1 UNK         0.0600 
     27 H27         8.4605    0.8128   -0.7808 H         1 UNK         0.0600 
     28 H28         8.4618    0.8349    0.9679 H         1 UNK         0.0600 
     29 H29         9.7264   -1.3409    0.9966 H         1 UNK         0.0600 
     30 H30         9.7251   -1.3630   -0.7566 H         1 UNK         0.0600 
     31 H31        10.8634    1.2111    0.0865 H         1 UNK         0.0000 
@<TRIPOS>BOND
     1    1    2 1    
     2    1   12 1    
     3    1   13 1    
     4    1   14 1    
     5    2    3 1    
     6    2   15 1    
     7    2   16 1    
     8    3    4 1    
     9    3   17 1    
    10    3   18 1    
    11    4    5 1    
    12    4   19 1    
    13    4   20 1    
    14    5    6 1    
    15    5   21 1    
    16    5   22 1    
    17    6    7 1    
    18    6   23 1    
    19    6   24 1    
    20    7    8 1    
    21    7   25 1    
    22    7   26 1    
    23    8    9 1    
    24    8   27 1    
    25    8   28 1    
    26    9   10 1    
    27    9   29 1    
    28    9   30 1    
    29   10   11 2    
    30   10   31 1    
@<TRIPOS>SUBSTRUCTURE
     1 UNK         1 GROUP             0       ****    0 ROOT    
