@<TRIPOS>MOLECULE
title: molecule 1
35   34    1
SMALL
USER_CHARGES


@<TRIPOS>ATOM
      1 O1         11.5111    0.7136    0.1151 O.2       1 UNK        -0.4400 
      2 C2         11.6992   -0.5014    0.1049 C.2       1 UNK         0.5200 
      3 O3         12.9240   -1.0998    0.0980 O.3       1 UNK        -0.5300 
      4 C4         10.5776   -1.5434    0.0983 C.3       1 UNK        -0.1200 
      5 C5          9.1684   -0.9237    0.1057 C.3       1 UNK        -0.1200 
      6 C6          8.0605   -1.9870    0.0990 C.3       1 UNK        -0.1200 
      7 C7          6.6533   -1.3723    0.1064 C.3       1 UNK        -0.1200 
      8 C8          5.5452   -2.4355    0.0997 C.3       1 UNK        -0.1200 
      9 C9          4.1380   -1.8208    0.1071 C.3       1 UNK        -0.1200 
     10 C10         3.0300   -2.8840    0.1004 C.3       1 UNK        -0.1200 
     11 C11         1.6227   -2.2692    0.1078 C.3       1 UNK        -0.1200 
     12 C12         0.5147   -3.3322    0.1011 C.3       1 UNK        -0.1200 
     13 C13        -0.8898   -2.7185    0.1085 C.3       1 UNK        -0.1800 
     14 H14        13.6280   -0.4698    0.1019 H         1 UNK         0.4500 
     15 H15        10.6994   -2.1747   -0.7826 H         1 UNK         0.0600 
     16 H16        10.7023   -2.1889    0.9686 H         1 UNK         0.0600 
     17 H17         9.0515   -0.2886    0.9853 H         1 UNK         0.0600 
     18 H18         9.0486   -0.2744   -0.7630 H         1 UNK         0.0600 
     19 H19         8.1737   -2.6228   -0.7800 H         1 UNK         0.0600 
     20 H20         8.1766   -2.6370    0.9672 H         1 UNK         0.0600 
     21 H21         6.5401   -0.7364    0.9853 H         1 UNK         0.0600 
     22 H22         6.5371   -0.7223   -0.7618 H         1 UNK         0.0600 
     23 H23         5.6584   -3.0714   -0.7793 H         1 UNK         0.0600 
     24 H24         5.6614   -3.0855    0.9679 H         1 UNK         0.0600 
     25 H25         4.0249   -1.1848    0.9860 H         1 UNK         0.0600 
     26 H26         4.0219   -1.1708   -0.7611 H         1 UNK         0.0600 
     27 H27         3.1431   -3.5199   -0.7786 H         1 UNK         0.0600 
     28 H28         3.1461   -3.5339    0.9686 H         1 UNK         0.0600 
     29 H29         1.5094   -1.6333    0.9867 H         1 UNK         0.0600 
     30 H30         1.5064   -1.6192   -0.7604 H         1 UNK         0.0600 
     31 H31         0.6232   -3.9688   -0.7777 H         1 UNK         0.0600 
     32 H32         0.6262   -3.9829    0.9692 H         1 UNK         0.0600 
     33 H33        -1.6536   -3.4964    0.1035 H         1 UNK         0.0600 
     34 H34        -1.0466   -2.1041    0.9955 H         1 UNK         0.0600 
     35 H35        -1.0497   -2.0899   -0.7680 H         1 UNK         0.0600 
@<TRIPOS>BOND
     1    1    2 2    
     2    2    3 1    
     3    2    4 1    
     4    3   14 1    
     5    4    5 1    
     6    4   15 1    
     7    4   16 1    
     8    5    6 1    
     9    5   17 1    
    10    5   18 1    
    11    6    7 1    
    12    6   19 1    
    13    6   20 1    
    14    7    8 1    
    15    7   21 1    
    16    7   22 1    
    17    8    9 1    
    18    8   23 1    
    19    8   24 1    
    20    9   10 1    
    21    9   25 1    
    22    9   26 1    
    23   10   11 1    
    24   10   27 1    
    25   10   28 1    
    26   11   12 1    
    27   11   29 1    
    28   11   30 1    
    29   12   13 1    
    30   12   31 1    
    31   12   32 1    
    32   13   33 1    
    33   13   34 1    
    34   13   35 1    
@<TRIPOS>SUBSTRUCTURE
     1 UNK         1 GROUP             0       ****    0 ROOT    
