@<TRIPOS>MOLECULE
title: molecule 1
39   38    1
SMALL
USER_CHARGES


@<TRIPOS>ATOM
      1 C1          0.6854    0.2538    0.1029 C.3       1 UNK         0.1450 
      2 C2          1.9579   -0.6034    0.1075 C.3       1 UNK        -0.1200 
      3 O3         -0.4525   -0.5811    0.1070 O.3       1 UNK        -0.6830 
      4 C4          3.2382    0.2445    0.1034 C.3       1 UNK        -0.1200 
      5 C5          4.5131   -0.6117    0.1080 C.3       1 UNK        -0.1200 
      6 C6          5.7932    0.2365    0.1038 C.3       1 UNK        -0.1200 
      7 C7          7.0680   -0.6198    0.1084 C.3       1 UNK        -0.1200 
      8 C8          8.3481    0.2284    0.1043 C.3       1 UNK        -0.1200 
      9 C9          9.6229   -0.6279    0.1089 C.3       1 UNK        -0.1200 
     10 C10        10.9031    0.2202    0.1048 C.3       1 UNK        -0.1200 
     11 C11        12.1779   -0.6361    0.1094 C.3       1 UNK        -0.1200 
     12 C12        13.4580    0.2118    0.1053 C.3       1 UNK        -0.1200 
     13 C13        14.7302   -0.6430    0.1099 C.3       1 UNK        -0.1800 
     14 H14         0.6543    0.9023    0.9790 H         1 UNK         0.0600 
     15 H15         0.6546    0.8932   -0.7799 H         1 UNK         0.0600 
     16 H16         1.9552   -1.2520    0.9847 H         1 UNK         0.0600 
     17 H17         1.9555   -1.2610   -0.7630 H         1 UNK         0.0600 
     18 H18        -1.2258   -0.0377    0.1040 H         1 UNK         0.4180 
     19 H19         3.2403    0.8931   -0.7736 H         1 UNK         0.0600 
     20 H20         3.2400    0.9020    0.9737 H         1 UNK         0.0600 
     21 H21         4.5109   -1.2604    0.9849 H         1 UNK         0.0600 
     22 H22         4.5112   -1.2693   -0.7623 H         1 UNK         0.0600 
     23 H23         5.7954    0.8851   -0.7731 H         1 UNK         0.0600 
     24 H24         5.7952    0.8941    0.9741 H         1 UNK         0.0600 
     25 H25         7.0658   -1.2684    0.9854 H         1 UNK         0.0600 
     26 H26         7.0660   -1.2773   -0.7618 H         1 UNK         0.0600 
     27 H27         8.3504    0.8770   -0.7727 H         1 UNK         0.0600 
     28 H28         8.3501    0.8860    0.9745 H         1 UNK         0.0600 
     29 H29         9.6207   -1.2765    0.9858 H         1 UNK         0.0600 
     30 H30         9.6210   -1.2855   -0.7614 H         1 UNK         0.0600 
     31 H31        10.9054    0.8688   -0.7722 H         1 UNK         0.0600 
     32 H32        10.9050    0.8778    0.9750 H         1 UNK         0.0600 
     33 H33        12.1759   -1.2847    0.9863 H         1 UNK         0.0600 
     34 H34        12.1762   -1.2937   -0.7609 H         1 UNK         0.0600 
     35 H35        13.4649    0.8604   -0.7715 H         1 UNK         0.0600 
     36 H36        13.4646    0.8693    0.9754 H         1 UNK         0.0600 
     37 H37        15.6207   -0.0140    0.1068 H         1 UNK         0.0600 
     38 H38        14.7749   -1.2782    0.9949 H         1 UNK         0.0600 
     39 H39        14.7752   -1.2872   -0.7686 H         1 UNK         0.0600 
@<TRIPOS>BOND
     1    1    2 1    
     2    1    3 1    
     3    1   14 1    
     4    1   15 1    
     5    2    4 1    
     6    2   16 1    
     7    2   17 1    
     8    3   18 1    
     9    4    5 1    
    10    4   19 1    
    11    4   20 1    
    12    5    6 1    
    13    5   21 1    
    14    5   22 1    
    15    6    7 1    
    16    6   23 1    
    17    6   24 1    
    18    7    8 1    
    19    7   25 1    
    20    7   26 1    
    21    8    9 1    
    22    8   27 1    
    23    8   28 1    
    24    9   10 1    
    25    9   29 1    
    26    9   30 1    
    27   10   11 1    
    28   10   31 1    
    29   10   32 1    
    30   11   12 1    
    31   11   33 1    
    32   11   34 1    
    33   12   13 1    
    34   12   35 1    
    35   12   36 1    
    36   13   37 1    
    37   13   38 1    
    38   13   39 1    
@<TRIPOS>SUBSTRUCTURE
     1 UNK         1 GROUP             0       ****    0 ROOT    
