@<TRIPOS>MOLECULE
title: molecule 1
45   44    1
SMALL
USER_CHARGES


@<TRIPOS>ATOM
      1 C1          0.5168    0.2290    0.1083 C.3       1 UNK         0.1450 
      2 C2          1.7910   -0.6257    0.0947 C.3       1 UNK        -0.1200 
      3 O3         -0.6195   -0.6079    0.0930 O.3       1 UNK        -0.6830 
      4 C4          3.0696    0.2246    0.1104 C.3       1 UNK        -0.1200 
      5 C5          4.3461   -0.6291    0.0968 C.3       1 UNK        -0.1200 
      6 C6          5.6246    0.2215    0.1124 C.3       1 UNK        -0.1200 
      7 C7          6.9010   -0.6322    0.0989 C.3       1 UNK        -0.1200 
      8 C8          8.1796    0.2183    0.1145 C.3       1 UNK        -0.1200 
      9 C9          9.4560   -0.6354    0.1009 C.3       1 UNK        -0.1200 
     10 C10        10.7345    0.2150    0.1166 C.3       1 UNK        -0.1200 
     11 C11        12.0109   -0.6387    0.1030 C.3       1 UNK        -0.1200 
     12 C12        13.2895    0.2117    0.1187 C.3       1 UNK        -0.1200 
     13 C13        14.5659   -0.6420    0.1051 C.3       1 UNK        -0.1200 
     14 C14        15.8444    0.2082    0.1208 C.3       1 UNK        -0.1200 
     15 C15        17.1183   -0.6440    0.1072 C.3       1 UNK        -0.1800 
     16 H16         0.4839    0.8578    0.9986 H         1 UNK         0.0600 
     17 H17         0.4854    0.8879   -0.7601 H         1 UNK         0.0600 
     18 H18         1.7889   -1.2936    0.9572 H         1 UNK         0.0600 
     19 H19         1.7904   -1.2637   -0.7902 H         1 UNK         0.0600 
     20 H20        -1.3938   -0.0661    0.1016 H         1 UNK         0.4180 
     21 H21         3.0710    0.8925   -0.7520 H         1 UNK         0.0600 
     22 H22         3.0695    0.8626    0.9951 H         1 UNK         0.0600 
     23 H23         4.3446   -1.2971    0.9590 H         1 UNK         0.0600 
     24 H24         4.3461   -1.2671   -0.7879 H         1 UNK         0.0600 
     25 H25         5.6262    0.8895   -0.7499 H         1 UNK         0.0600 
     26 H26         5.6247    0.8595    0.9971 H         1 UNK         0.0600 
     27 H27         6.8995   -1.3002    0.9611 H         1 UNK         0.0600 
     28 H28         6.9010   -1.2702   -0.7858 H         1 UNK         0.0600 
     29 H29         8.1811    0.8863   -0.7478 H         1 UNK         0.0600 
     30 H30         8.1797    0.8563    0.9992 H         1 UNK         0.0600 
     31 H31         9.4544   -1.3035    0.9632 H         1 UNK         0.0600 
     32 H32         9.4559   -1.2735   -0.7838 H         1 UNK         0.0600 
     33 H33        10.7361    0.8830   -0.7457 H         1 UNK         0.0600 
     34 H34        10.7346    0.8530    1.0013 H         1 UNK         0.0600 
     35 H35        12.0094   -1.3067    0.9653 H         1 UNK         0.0600 
     36 H36        12.0108   -1.2767   -0.7817 H         1 UNK         0.0600 
     37 H37        13.2911    0.8797   -0.7436 H         1 UNK         0.0600 
     38 H38        13.2896    0.8497    1.0034 H         1 UNK         0.0600 
     39 H39        14.5646   -1.3101    0.9673 H         1 UNK         0.0600 
     40 H40        14.5660   -1.2800   -0.7796 H         1 UNK         0.0600 
     41 H41        15.8506    0.8762   -0.7413 H         1 UNK         0.0600 
     42 H42        15.8492    0.8462    1.0053 H         1 UNK         0.0600 
     43 H43        18.0075   -0.0135    0.1188 H         1 UNK         0.0600 
     44 H44        17.1635   -1.2987    0.9779 H         1 UNK         0.0600 
     45 H45        17.1650   -1.2684   -0.7854 H         1 UNK         0.0600 
@<TRIPOS>BOND
     1    1    2 1    
     2    1    3 1    
     3    1   16 1    
     4    1   17 1    
     5    2    4 1    
     6    2   18 1    
     7    2   19 1    
     8    3   20 1    
     9    4    5 1    
    10    4   21 1    
    11    4   22 1    
    12    5    6 1    
    13    5   23 1    
    14    5   24 1    
    15    6    7 1    
    16    6   25 1    
    17    6   26 1    
    18    7    8 1    
    19    7   27 1    
    20    7   28 1    
    21    8    9 1    
    22    8   29 1    
    23    8   30 1    
    24    9   10 1    
    25    9   31 1    
    26    9   32 1    
    27   10   11 1    
    28   10   33 1    
    29   10   34 1    
    30   11   12 1    
    31   11   35 1    
    32   11   36 1    
    33   12   13 1    
    34   12   37 1    
    35   12   38 1    
    36   13   14 1    
    37   13   39 1    
    38   13   40 1    
    39   14   15 1    
    40   14   41 1    
    41   14   42 1    
    42   15   43 1    
    43   15   44 1    
    44   15   45 1    
@<TRIPOS>SUBSTRUCTURE
     1 UNK         1 GROUP             0       ****    0 ROOT    
