@<TRIPOS>MOLECULE
title: molecule 1
17   17    1
SMALL
USER_CHARGES


@<TRIPOS>ATOM
      1 C1          4.1652    3.4530    2.6842 C.3       1 UNK        -0.1800 
      2 C2          2.6841    3.0765    2.5242 C.3       1 UNK        -0.0600 
      3 C3          2.3405    2.5386    1.1409 C.2       1 UNK         0.4700 
      4 C4          2.2171    1.9511    3.4573 C.3       1 UNK        -0.1200 
      5 O5          2.7598    3.0122    0.0864 O.2       1 UNK        -0.4700 
      6 C6          1.4106    1.3395    1.2208 C.3       1 UNK        -0.1200 
      7 C7          1.0835    1.2292    2.7144 C.3       1 UNK        -0.1200 
      8 H8          4.3758    3.7714    3.7053 H         1 UNK         0.0600 
      9 H9          4.8200    2.6108    2.4569 H         1 UNK         0.0600 
     10 H10         4.4364    4.2752    2.0212 H         1 UNK         0.0600 
     11 H11         2.0653    3.9589    2.6895 H         1 UNK         0.0600 
     12 H12         1.8873    2.3323    4.4242 H         1 UNK         0.0600 
     13 H13         3.0350    1.2534    3.6446 H         1 UNK         0.0600 
     14 H14         1.9400    0.4547    0.8669 H         1 UNK         0.0600 
     15 H15         0.5175    1.4813    0.6119 H         1 UNK         0.0600 
     16 H16         0.1333    1.7259    2.9157 H         1 UNK         0.0600 
     17 H17         0.9841    0.1923    3.0367 H         1 UNK         0.0600 
@<TRIPOS>BOND
     1    1    2 1    
     2    1    8 1    
     3    1    9 1    
     4    1   10 1    
     5    2    3 1    
     6    2    4 1    
     7    2   11 1    
     8    3    5 2    
     9    3    6 1    
    10    4    7 1    
    11    4   12 1    
    12    4   13 1    
    13    6    7 1    
    14    6   14 1    
    15    6   15 1    
    16    7   16 1    
    17    7   17 1    
@<TRIPOS>SUBSTRUCTURE
     1 UNK         1 GROUP             0       ****    0 ROOT    
