@<TRIPOS>MOLECULE
title: molecule 1
23   22    1
SMALL
USER_CHARGES


@<TRIPOS>ATOM
      1 C1          3.0210    0.1462    0.0012 C.3       1 UNK         0.1450 
      2 C2          1.6044    0.7422   -0.1905 C.3       1 UNK         0.1200 
      3 O3          3.9354    0.6114   -0.9693 O.3       1 UNK        -0.6830 
      4 N4          0.6150   -0.1397    0.4576 N.3       1 UNK        -0.9000 
      5 C5          1.4164    2.2336    0.2560 C.3       1 UNK         0.0000 
      6 C6         -0.0136    2.6989   -0.1018 C.3       1 UNK        -0.1800 
      7 C7          1.6294    2.4132    1.7756 C.3       1 UNK        -0.1800 
      8 C8          2.3886    3.1747   -0.4863 C.3       1 UNK        -0.1800 
      9 H9          3.4117    0.3406    0.9992 H         1 UNK         0.0600 
     10 H10         2.9842   -0.9387   -0.1058 H         1 UNK         0.0600 
     11 H11         1.4030    0.7064   -1.2622 H         1 UNK         0.0600 
     12 H12         4.7725    0.2005   -0.8155 H         1 UNK         0.4180 
     13 H13        -0.3300    0.1963    0.2784 H         1 UNK         0.3600 
     14 H14         0.6749   -1.0834    0.0779 H         1 UNK         0.3600 
     15 H15        -0.1602    3.7536    0.1343 H         1 UNK         0.0600 
     16 H16        -0.2177    2.5727   -1.1657 H         1 UNK         0.0600 
     17 H17        -0.7754    2.1461    0.4483 H         1 UNK         0.0600 
     18 H18         1.4452    3.4447    2.0777 H         1 UNK         0.0600 
     19 H19         0.9556    1.7838    2.3573 H         1 UNK         0.0600 
     20 H20         2.6483    2.1725    2.0769 H         1 UNK         0.0600 
     21 H21         2.1629    4.2219   -0.2819 H         1 UNK         0.0600 
     22 H22         3.4224    3.0166   -0.1801 H         1 UNK         0.0600 
     23 H23         2.3335    3.0337   -1.5663 H         1 UNK         0.0600 
@<TRIPOS>BOND
     1    1    2 1    
     2    1    3 1    
     3    1    9 1    
     4    1   10 1    
     5    2    4 1    
     6    2    5 1    
     7    2   11 1    
     8    3   12 1    
     9    4   13 1    
    10    4   14 1    
    11    5    6 1    
    12    5    7 1    
    13    5    8 1    
    14    6   15 1    
    15    6   16 1    
    16    6   17 1    
    17    7   18 1    
    18    7   19 1    
    19    7   20 1    
    20    8   21 1    
    21    8   22 1    
    22    8   23 1    
@<TRIPOS>SUBSTRUCTURE
     1 UNK         1 GROUP             0       ****    0 ROOT    
