@<TRIPOS>MOLECULE
title: molecule 1
29   30    1
SMALL
USER_CHARGES


@<TRIPOS>ATOM
      1 C1          8.2323    2.1819    2.8451 C.ar      1 UNK         0.1500 
      2 O2          9.5715    2.1351    3.1019 O.3       1 UNK        -0.5850 
      3 C3          7.3391    1.4302    3.6323 C.ar      1 UNK        -0.1150 
      4 C4          7.7402    2.9805    1.7943 C.ar      1 UNK        -0.1150 
      5 C5          5.9562    1.4765    3.3696 C.ar      1 UNK        -0.1150 
      6 C6          6.3570    3.0266    1.5318 C.ar      1 UNK        -0.1150 
      7 C7          5.4558    2.2753    2.3173 C.ar      1 UNK        -0.1150 
      8 C8          3.9611    2.3314    2.0260 C.3       1 UNK         0.0550 
      9 C9          3.1615    2.9138    3.2099 C.3       1 UNK        -0.1200 
     10 C10         3.3997    0.9558    1.6104 C.3       1 UNK        -0.1200 
     11 C11         1.6600    2.9923    2.8877 C.3       1 UNK        -0.1200 
     12 C12         1.8979    1.0367    1.2902 C.3       1 UNK        -0.1200 
     13 C13         1.1067    1.6199    2.4718 C.3       1 UNK        -0.1200 
     14 H14        10.0814    2.6746    2.5175 H         1 UNK         0.4350 
     15 H15         7.7128    0.8166    4.4390 H         1 UNK         0.1150 
     16 H16         8.4192    3.5600    1.1861 H         1 UNK         0.1150 
     17 H17         5.2820    0.8951    3.9809 H         1 UNK         0.1150 
     18 H18         5.9928    3.6430    0.7230 H         1 UNK         0.1150 
     19 H19         3.8210    3.0058    1.1796 H         1 UNK         0.0600 
     20 H20         3.5342    3.9085    3.4571 H         1 UNK         0.0600 
     21 H21         3.3047    2.3002    4.1000 H         1 UNK         0.0600 
     22 H22         3.5568    0.2279    2.4071 H         1 UNK         0.0600 
     23 H23         3.9390    0.5817    0.7393 H         1 UNK         0.0600 
     24 H24         1.4954    3.7115    2.0843 H         1 UNK         0.0600 
     25 H25         1.1133    3.3666    3.7537 H         1 UNK         0.0600 
     26 H26         1.5173    0.0457    1.0409 H         1 UNK         0.0600 
     27 H27         1.7454    1.6573    0.4063 H         1 UNK         0.0600 
     28 H28         0.0528    1.7086    2.2063 H         1 UNK         0.0600 
     29 H29         1.1556    0.9341    3.3186 H         1 UNK         0.0600 
@<TRIPOS>BOND
     1    1    2 1    
     2    1    3 ar   
     3    1    4 ar   
     4    2   14 1    
     5    3    5 ar   
     6    3   15 1    
     7    4    6 ar   
     8    4   16 1    
     9    5    7 ar   
    10    5   17 1    
    11    6    7 ar   
    12    6   18 1    
    13    7    8 1    
    14    8    9 1    
    15    8   10 1    
    16    8   19 1    
    17    9   11 1    
    18    9   20 1    
    19    9   21 1    
    20   10   12 1    
    21   10   22 1    
    22   10   23 1    
    23   11   13 1    
    24   11   24 1    
    25   11   25 1    
    26   12   13 1    
    27   12   26 1    
    28   12   27 1    
    29   13   28 1    
    30   13   29 1    
@<TRIPOS>SUBSTRUCTURE
     1 UNK         1 GROUP             0       ****    0 ROOT    
