@<TRIPOS>MOLECULE
title: molecule 1
25   26    1
SMALL
USER_CHARGES


@<TRIPOS>ATOM
      1 C1          4.8112   -1.8387    0.0560 C.ar      1 UNK        -0.1150 
      2 C2          3.5354   -1.0693    0.0966 C.2       1 UNK         0.7000 
      3 C3          5.9557   -1.3193    0.7021 C.ar      1 UNK        -0.1150 
      4 C4          4.9142   -3.0625   -0.6467 C.ar      1 UNK        -0.1150 
      5 O5          3.5370    0.1621    0.0773 O.2       1 UNK        -0.4700 
      6 C6          2.2579   -1.8339    0.1610 C.ar      1 UNK        -0.1150 
      7 C7          7.1765   -2.0208    0.6652 C.ar      1 UNK        -0.1150 
      8 C8          6.1353   -3.7636   -0.6833 C.ar      1 UNK        -0.1150 
      9 C9          1.1149   -1.3326   -0.5022 C.ar      1 UNK        -0.1150 
     10 C10         2.1517   -3.0344    0.9025 C.ar      1 UNK        -0.1150 
     11 C11         7.2670   -3.2442   -0.0255 C.ar      1 UNK         0.1500 
     12 C12        -0.1076   -2.0298   -0.4437 C.ar      1 UNK        -0.1150 
     13 C13         0.9287   -3.7307    0.9603 C.ar      1 UNK        -0.1150 
     14 O14         8.4512   -3.9211   -0.0592 O.3       1 UNK        -0.5850 
     15 C15        -0.2006   -3.2302    0.2854 C.ar      1 UNK        -0.1150 
     16 H16         5.9041   -0.3806    1.2353 H         1 UNK         0.1150 
     17 H17         4.0609   -3.4717   -1.1682 H         1 UNK         0.1150 
     18 H18         8.0438   -1.6172    1.1671 H         1 UNK         0.1150 
     19 H19         6.1989   -4.6983   -1.2210 H         1 UNK         0.1150 
     20 H20         1.1692   -0.4114   -1.0649 H         1 UNK         0.1150 
     21 H21         3.0036   -3.4288    1.4376 H         1 UNK         0.1150 
     22 H22        -0.9748   -1.6422   -0.9577 H         1 UNK         0.1150 
     23 H23         0.8564   -4.6479    1.5261 H         1 UNK         0.1150 
     24 H24         8.4057   -4.7273   -0.5499 H         1 UNK         0.4350 
     25 H25        -1.1384   -3.7641    0.3308 H         1 UNK         0.1150 
@<TRIPOS>BOND
     1    1    2 1    
     2    1    3 ar   
     3    1    4 ar   
     4    2    5 2    
     5    2    6 1    
     6    3    7 ar   
     7    3   16 1    
     8    4    8 ar   
     9    4   17 1    
    10    6    9 ar   
    11    6   10 ar   
    12    7   11 ar   
    13    7   18 1    
    14    8   11 ar   
    15    8   19 1    
    16    9   12 ar   
    17    9   20 1    
    18   10   13 ar   
    19   10   21 1    
    20   11   14 1    
    21   12   15 ar   
    22   12   22 1    
    23   13   15 ar   
    24   13   23 1    
    25   14   24 1    
    26   15   25 1    
@<TRIPOS>SUBSTRUCTURE
     1 UNK         1 GROUP             0       ****    0 ROOT    
