@<TRIPOS>MOLECULE
title: molecule 1
17   17    1
SMALL
USER_CHARGES


@<TRIPOS>ATOM
      1 O1          2.0966   -4.6109    0.2214 O.3       1 UNK        -0.5850 
      2 C2          2.7434   -3.4096    0.1448 C.ar      1 UNK         0.1500 
      3 C3          2.0343   -2.1802    0.0888 C.ar      1 UNK         0.0900 
      4 C4          4.1532   -3.4112    0.1439 C.ar      1 UNK        -0.1150 
      5 C5          2.7654   -0.9706    0.0466 C.ar      1 UNK        -0.1150 
      6 N6          0.5599   -2.1260    0.0797 N.pl3     1 UNK         0.6500 
      7 C7          4.8679   -2.2005    0.0936 C.ar      1 UNK        -0.1150 
      8 C8          4.1736   -0.9777    0.0471 C.ar      1 UNK         0.1800 
      9 O9         -0.0585   -2.9863   -0.5382 O.co2     1 UNK        -0.3700 
     10 O10         0.0225   -1.1963    0.6730 O.co2     1 UNK        -0.3700 
     11 N11         4.8783    0.2238    0.0004 N.pl3     1 UNK        -0.9000 
     12 H12         2.6826   -5.3516    0.2522 H         1 UNK         0.4350 
     13 H13         4.6952   -4.3446    0.1873 H         1 UNK         0.1150 
     14 H14         2.2396   -0.0274    0.0057 H         1 UNK         0.1150 
     15 H15         5.9482   -2.2160    0.0947 H         1 UNK         0.1150 
     16 H16         5.8878    0.2454    0.0237 H         1 UNK         0.3600 
     17 H17         4.4037    1.1153   -0.0086 H         1 UNK         0.3600 
@<TRIPOS>BOND
     1    1    2 1    
     2    1   12 1    
     3    2    3 ar   
     4    2    4 ar   
     5    3    5 ar   
     6    3    6 1    
     7    4    7 ar   
     8    4   13 1    
     9    5    8 ar   
    10    5   14 1    
    11    6    9 2    
    12    6   10 1    
    13    7    8 ar   
    14    7   15 1    
    15    8   11 1    
    16   11   16 1    
    17   11   17 1    
@<TRIPOS>SUBSTRUCTURE
     1 UNK         1 GROUP             0       ****    0 ROOT    
