@<TRIPOS>MOLECULE
title: molecule 1
28   27    1
SMALL
USER_CHARGES


@<TRIPOS>ATOM
      1 S1         -1.9599   -0.1310    0.1933 S.3       1 UNK        -0.3350 
      2 C2         -0.4832    0.9177    0.1366 C.3       1 UNK         0.0600 
      3 C3          0.7696    0.0314    0.1552 C.3       1 UNK        -0.1200 
      4 C4          2.0680    0.8499    0.1093 C.3       1 UNK        -0.1200 
      5 C5          3.3235   -0.0342    0.1278 C.3       1 UNK        -0.1200 
      6 C6          4.6219    0.7844    0.0818 C.3       1 UNK        -0.1200 
      7 C7          5.8774   -0.0997    0.1003 C.3       1 UNK        -0.1200 
      8 C8          7.1758    0.7188    0.0544 C.3       1 UNK        -0.1200 
      9 C9          8.4286   -0.1675    0.0730 C.3       1 UNK         0.0600 
     10 S10         9.9053    0.8812    0.0163 S.3       1 UNK        -0.3350 
     11 H11        -2.8448    0.8697    0.1661 H         1 UNK         0.1550 
     12 H12        -0.5132    1.5278   -0.7666 H         1 UNK         0.0600 
     13 H13        -0.4926    1.5938    0.9920 H         1 UNK         0.0600 
     14 H14         0.7639   -0.5878    1.0533 H         1 UNK         0.0600 
     15 H15         0.7435   -0.6534   -0.6935 H         1 UNK         0.0600 
     16 H16         2.0741    1.4695   -0.7884 H         1 UNK         0.0600 
     17 H17         2.0945    1.5351    0.9575 H         1 UNK         0.0600 
     18 H18         3.3173   -0.6539    1.0254 H         1 UNK         0.0600 
     19 H19         3.2968   -0.7195   -0.7205 H         1 UNK         0.0600 
     20 H20         4.6282    1.4041   -0.8158 H         1 UNK         0.0600 
     21 H21         4.6486    1.4697    0.9300 H         1 UNK         0.0600 
     22 H22         5.8714   -0.7193    0.9980 H         1 UNK         0.0600 
     23 H23         5.8509   -0.7849   -0.7480 H         1 UNK         0.0600 
     24 H24         7.1815    1.3380   -0.8437 H         1 UNK         0.0600 
     25 H25         7.2020    1.4036    0.9031 H         1 UNK         0.0600 
     26 H26         8.4586   -0.7776    0.9762 H         1 UNK         0.0600 
     27 H27         8.4380   -0.8436   -0.7824 H         1 UNK         0.0600 
     28 H28        10.7902   -0.1195    0.0435 H         1 UNK         0.1550 
@<TRIPOS>BOND
     1    1    2 1    
     2    1   11 1    
     3    2    3 1    
     4    2   12 1    
     5    2   13 1    
     6    3    4 1    
     7    3   14 1    
     8    3   15 1    
     9    4    5 1    
    10    4   16 1    
    11    4   17 1    
    12    5    6 1    
    13    5   18 1    
    14    5   19 1    
    15    6    7 1    
    16    6   20 1    
    17    6   21 1    
    18    7    8 1    
    19    7   22 1    
    20    7   23 1    
    21    8    9 1    
    22    8   24 1    
    23    8   25 1    
    24    9   10 1    
    25    9   26 1    
    26    9   27 1    
    27   10   28 1    
@<TRIPOS>SUBSTRUCTURE
     1 UNK         1 GROUP             0       ****    0 ROOT    
