@<TRIPOS>MOLECULE
title: molecule 1
22   21    1
SMALL
USER_CHARGES


@<TRIPOS>ATOM
      1 C1          3.7645    0.8252    0.1061 C.3       1 UNK        -0.1200 
      2 C2          2.5266   -0.0835    0.0977 C.3       1 UNK        -0.1200 
      3 C3          5.0783    0.0318    0.1511 C.3       1 UNK        -0.1200 
      4 C4          1.2128    0.7099    0.0526 C.3       1 UNK        -0.1200 
      5 C5          6.3134    0.9426    0.1594 C.3       1 UNK         0.0600 
      6 C6         -0.0224   -0.2009    0.0443 C.3       1 UNK         0.0600 
      7 S7          7.8099   -0.0778    0.2131 S.3       1 UNK        -0.3350 
      8 S8         -1.5189    0.8194   -0.0095 S.3       1 UNK        -0.3350 
      9 H9          3.7546    1.4596   -0.7812 H         1 UNK         0.0600 
     10 H10         3.7164    1.4955    0.9652 H         1 UNK         0.0600 
     11 H11         2.5746   -0.7538   -0.7615 H         1 UNK         0.0600 
     12 H12         2.5364   -0.7179    0.9850 H         1 UNK         0.0600 
     13 H13         5.0878   -0.6022    1.0388 H         1 UNK         0.0600 
     14 H14         5.1260   -0.6382   -0.7085 H         1 UNK         0.0600 
     15 H15         1.1650    1.3798    0.9122 H         1 UNK         0.0600 
     16 H16         1.2033    1.3439   -0.8351 H         1 UNK         0.0600 
     17 H17         6.3399    1.5682   -0.7333 H         1 UNK         0.0600 
     18 H18         6.3014    1.6044    1.0259 H         1 UNK         0.0600 
     19 H19        -0.0104   -0.8627   -0.8222 H         1 UNK         0.0600 
     20 H20        -0.0489   -0.8265    0.9370 H         1 UNK         0.0600 
     21 H21         8.6751    0.9404    0.2111 H         1 UNK         0.1550 
     22 H22        -2.3841   -0.1987   -0.0075 H         1 UNK         0.1550 
@<TRIPOS>BOND
     1    1    2 1    
     2    1    3 1    
     3    1    9 1    
     4    1   10 1    
     5    2    4 1    
     6    2   11 1    
     7    2   12 1    
     8    3    5 1    
     9    3   13 1    
    10    3   14 1    
    11    4    6 1    
    12    4   15 1    
    13    4   16 1    
    14    5    7 1    
    15    5   17 1    
    16    5   18 1    
    17    6    8 1    
    18    6   19 1    
    19    6   20 1    
    20    7   21 1    
    21    8   22 1    
@<TRIPOS>SUBSTRUCTURE
     1 UNK         1 GROUP             0       ****    0 ROOT    
