@<TRIPOS>MOLECULE
title: molecule 1
13   13    1
SMALL
USER_CHARGES


@<TRIPOS>ATOM
      1 C1          2.4922    2.2147    0.1034 C.ar      1 UNK        -0.1150 
      2 C2          1.7705    1.0031    0.0694 C.ar      1 UNK         0.0350 
      3 C3          3.9004    2.1959    0.1494 C.ar      1 UNK        -0.1150 
      4 C4          2.4621   -0.2264    0.0817 C.ar      1 UNK        -0.1150 
      5 C5          0.3178    1.0214    0.0220 C.1       1 UNK         0.3950 
      6 C6          4.5893    0.9675    0.1615 C.ar      1 UNK         0.2200 
      7 C7          3.8703   -0.2431    0.1277 C.ar      1 UNK        -0.1150 
      8 N8         -0.8385    1.0360   -0.0158 N.1       1 UNK        -0.4300 
      9 F9          5.9424    0.9504    0.2058 F         1 UNK        -0.2200 
     10 H10         1.9720    3.1620    0.0944 H         1 UNK         0.1150 
     11 H11         4.4524    3.1238    0.1754 H         1 UNK         0.1150 
     12 H12         1.9187   -1.1602    0.0559 H         1 UNK         0.1150 
     13 H13         4.3993   -1.1847    0.1370 H         1 UNK         0.1150 
@<TRIPOS>BOND
     1    1    2 ar   
     2    1    3 ar   
     3    1   10 1    
     4    2    4 ar   
     5    2    5 1    
     6    3    6 ar   
     7    3   11 1    
     8    4    7 ar   
     9    4   12 1    
    10    5    8 3    
    11    6    9 1    
    12    6    7 ar   
    13    7   13 1    
@<TRIPOS>SUBSTRUCTURE
     1 UNK         1 GROUP             0       ****    0 ROOT    
