@<TRIPOS>MOLECULE
title: molecule 1
14   14    1
SMALL
USER_CHARGES


@<TRIPOS>ATOM
      1 O1         -0.0321   -2.1443    0.1136 O.3       1 UNK        -0.5850 
      2 C2          1.3352   -2.1494    0.1066 C.ar      1 UNK         0.1500 
      3 C3          2.0472   -0.9306    0.1001 C.ar      1 UNK         0.1500 
      4 C4          2.0339   -3.3756    0.1060 C.ar      1 UNK         0.1800 
      5 O5          1.3710    0.2580    0.1007 O.3       1 UNK        -0.5850 
      6 C6          3.4584   -0.9368    0.0929 C.ar      1 UNK         0.1800 
      7 C7          3.4467   -3.3837    0.0988 C.ar      1 UNK         0.1800 
      8 Cl8         1.1505   -4.8643    0.1140 Cl        1 UNK        -0.1800 
      9 Cl9         4.3211    0.5640    0.0849 Cl        1 UNK        -0.1800 
     10 C10         4.1594   -2.1634    0.0923 C.ar      1 UNK         0.1800 
     11 Cl11        4.3033   -4.8881    0.0980 Cl        1 UNK        -0.1800 
     12 Cl12        5.8905   -2.1706    0.0834 Cl        1 UNK        -0.1800 
     13 H13        -0.4030   -3.0139    0.1176 H         1 UNK         0.4350 
     14 H14         1.9463    1.0081    0.0960 H         1 UNK         0.4350 
@<TRIPOS>BOND
     1    1    2 1    
     2    1   13 1    
     3    2    3 ar   
     4    2    4 ar   
     5    3    5 1    
     6    3    6 ar   
     7    4    7 ar   
     8    4    8 1    
     9    5   14 1    
    10    6    9 1    
    11    6   10 ar   
    12    7   10 ar   
    13    7   11 1    
    14   10   12 1    
@<TRIPOS>SUBSTRUCTURE
     1 UNK         1 GROUP             0       ****    0 ROOT    
