@<TRIPOS>MOLECULE
title: molecule 1
12   12    1
SMALL
USER_CHARGES


@<TRIPOS>ATOM
      1 Cl1         5.0721    0.4451    0.1316 Cl        1 UNK        -0.1800 
      2 C2          3.5978   -0.4556    0.1104 C.ar      1 UNK         0.1800 
      3 C3          3.6101   -1.8684    0.0879 C.ar      1 UNK         0.1800 
      4 C4          2.3691    0.2346    0.1158 C.ar      1 UNK        -0.1150 
      5 Cl5         5.0999   -2.7435    0.0808 Cl        1 UNK        -0.1800 
      6 C6          2.3937   -2.5800    0.0710 C.ar      1 UNK        -0.1150 
      7 C7          1.1552   -0.4793    0.0989 C.ar      1 UNK        -0.1150 
      8 C8          1.1674   -1.8873    0.0765 C.ar      1 UNK         0.1800 
      9 Cl9        -0.3188   -2.7633    0.0557 Cl        1 UNK        -0.1800 
     10 H10         2.3565    1.3146    0.1330 H         1 UNK         0.1150 
     11 H11         2.4018   -3.6601    0.0538 H         1 UNK         0.1150 
     12 H12         0.2160    0.0542    0.1031 H         1 UNK         0.1150 
@<TRIPOS>BOND
     1    1    2 1    
     2    2    3 ar   
     3    2    4 ar   
     4    3    5 1    
     5    3    6 ar   
     6    4    7 ar   
     7    4   10 1    
     8    6    8 ar   
     9    6   11 1    
    10    7    8 ar   
    11    7   12 1    
    12    8    9 1    
@<TRIPOS>SUBSTRUCTURE
     1 UNK         1 GROUP             0       ****    0 ROOT    
