@<TRIPOS>MOLECULE
title: molecule 1
13   13    1
SMALL
USER_CHARGES


@<TRIPOS>ATOM
      1 Cl1        -0.2779   -2.7581    0.1292 Cl        1 UNK        -0.1800 
      2 C2          1.2041   -1.8698    0.1116 C.ar      1 UNK         0.1800 
      3 C3          1.1997   -0.4571    0.1009 C.ar      1 UNK         0.1500 
      4 C4          2.4281   -2.5679    0.1080 C.ar      1 UNK        -0.1150 
      5 C5          2.4202    0.2483    0.0866 C.ar      1 UNK        -0.1150 
      6 O6          0.0223    0.2348    0.1042 O.3       1 UNK        -0.5850 
      7 C7          3.6461   -1.8608    0.0937 C.ar      1 UNK         0.1800 
      8 C8          3.6419   -0.4525    0.0830 C.ar      1 UNK        -0.1150 
      9 Cl9         5.1425   -2.7195    0.0893 Cl        1 UNK        -0.1800 
     10 H10         2.4323   -3.6480    0.1162 H         1 UNK         0.1150 
     11 H11         2.4249    1.3285    0.0784 H         1 UNK         0.1150 
     12 H12         0.1387    1.1723    0.0963 H         1 UNK         0.4350 
     13 H13         4.5750    0.0914    0.0721 H         1 UNK         0.1150 
@<TRIPOS>BOND
     1    1    2 1    
     2    2    3 ar   
     3    2    4 ar   
     4    3    5 ar   
     5    3    6 1    
     6    4    7 ar   
     7    4   10 1    
     8    5    8 ar   
     9    5   11 1    
    10    6   12 1    
    11    7    8 ar   
    12    7    9 1    
    13    8   13 1    
@<TRIPOS>SUBSTRUCTURE
     1 UNK         1 GROUP             0       ****    0 ROOT    
