@<TRIPOS>MOLECULE
title: molecule 1
16   16    1
SMALL
USER_CHARGES


@<TRIPOS>ATOM
      1 N1         -0.0160   -2.2248    0.1214 N.pl3     1 UNK        -0.9000 
      2 C2          1.3789   -2.2040    0.1077 C.ar      1 UNK         0.1800 
      3 C3          2.0870   -0.9819    0.0924 C.ar      1 UNK         0.1800 
      4 C4          2.0891   -3.4202    0.1092 C.ar      1 UNK        -0.1150 
      5 Cl5         1.2502    0.5313    0.0901 Cl        1 UNK        -0.1800 
      6 C6          3.4958   -0.9861    0.0787 C.ar      1 UNK        -0.1150 
      7 C7          3.4970   -3.4202    0.0955 C.ar      1 UNK        -0.1150 
      8 C8          4.2169   -2.2029    0.0801 C.ar      1 UNK         0.0900 
      9 N9          5.6931   -2.2020    0.0658 N.pl3     1 UNK         0.6500 
     10 O10         6.2732   -1.1211    0.0526 O.co2     1 UNK        -0.3700 
     11 O11         6.2747   -3.2823    0.0676 O.co2     1 UNK        -0.3700 
     12 H12        -0.5352   -3.0909    0.1324 H         1 UNK         0.3600 
     13 H13        -0.5523   -1.3685    0.1207 H         1 UNK         0.3600 
     14 H14         1.5573   -4.3606    0.1209 H         1 UNK         0.1150 
     15 H15         4.0187   -0.0409    0.0671 H         1 UNK         0.1150 
     16 H16         4.0176   -4.3667    0.0970 H         1 UNK         0.1150 
@<TRIPOS>BOND
     1    1    2 1    
     2    1   12 1    
     3    1   13 1    
     4    2    3 ar   
     5    2    4 ar   
     6    3    5 1    
     7    3    6 ar   
     8    4    7 ar   
     9    4   14 1    
    10    6    8 ar   
    11    6   15 1    
    12    7    8 ar   
    13    7   16 1    
    14    8    9 1    
    15    9   10 1    
    16    9   11 2    
@<TRIPOS>SUBSTRUCTURE
     1 UNK         1 GROUP             0       ****    0 ROOT    
