@<TRIPOS>MOLECULE
title: molecule 1
22   22    1
SMALL
USER_CHARGES


@<TRIPOS>ATOM
      1 C1          4.4009    3.2088    5.9654 C.ar      1 UNK        -0.1150 
      2 C2          3.3312    3.4806    5.0913 C.ar      1 UNK        -0.1150 
      3 C3          5.3713    2.2405    5.6418 C.ar      1 UNK         0.0850 
      4 C4          3.2080    2.7858    3.8674 C.ar      1 UNK        -0.1150 
      5 C5          5.2509    1.5419    4.4154 C.ar      1 UNK        -0.1150 
      6 O6          6.3844    2.0378    6.5544 O.3       1 UNK        -0.2850 
      7 C7          4.1814    1.8123    3.5394 C.ar      1 UNK        -0.1150 
      8 C8          2.0637    3.0955    2.9617 C.2       1 UNK         0.6250 
      9 C9          7.3742    1.0663    6.2492 C.3       1 UNK         0.1100 
     10 O10         2.0717    2.3593    1.8323 O.3       1 UNK        -0.3300 
     11 O11         1.2013    3.9375    3.2206 O.2       1 UNK        -0.4300 
     12 C12         1.0481    2.5365    0.8678 C.3       1 UNK         0.1600 
     13 H13         4.4774    3.7508    6.8966 H         1 UNK         0.1150 
     14 H14         2.6059    4.2303    5.3735 H         1 UNK         0.1150 
     15 H15         5.9681    0.7908    4.1214 H         1 UNK         0.1150 
     16 H16         4.1262    1.2574    2.6142 H         1 UNK         0.1150 
     17 H17         8.0993    1.0243    7.0618 H         1 UNK         0.0300 
     18 H18         6.9382    0.0718    6.1451 H         1 UNK         0.0300 
     19 H19         7.9157    1.3214    5.3373 H         1 UNK         0.0300 
     20 H20         1.2121    1.8640    0.0259 H         1 UNK         0.0300 
     21 H21         0.0690    2.3154    1.2944 H         1 UNK         0.0300 
     22 H22         1.0424    3.5597    0.4901 H         1 UNK         0.0300 
@<TRIPOS>BOND
     1    1    2 ar   
     2    1    3 ar   
     3    1   13 1    
     4    2    4 ar   
     5    2   14 1    
     6    3    5 ar   
     7    3    6 1    
     8    4    7 ar   
     9    4    8 1    
    10    5    7 ar   
    11    5   15 1    
    12    6    9 1    
    13    7   16 1    
    14    8   10 1    
    15    8   11 2    
    16    9   17 1    
    17    9   18 1    
    18    9   19 1    
    19   10   12 1    
    20   12   20 1    
    21   12   21 1    
    22   12   22 1    
@<TRIPOS>SUBSTRUCTURE
     1 UNK         1 GROUP             0       ****    0 ROOT    
