@<TRIPOS>MOLECULE
title: molecule 1
18   18    1
SMALL
USER_CHARGES


@<TRIPOS>ATOM
      1 C1          1.0808    2.3232    3.3310 C.3       1 UNK        -0.1800 
      2 C2          1.8780    2.0447    2.0581 C.2       1 UNK         0.5850 
      3 O3          1.2661    1.8636    1.0059 O.2       1 UNK        -0.4700 
      4 C4          3.3645    2.0076    2.1624 C.ar      1 UNK        -0.1150 
      5 C5          4.1344    1.7523    1.0036 C.ar      1 UNK        -0.1150 
      6 C6          4.0317    2.2212    3.3928 C.ar      1 UNK        -0.1150 
      7 C7          5.5408    1.7111    1.0708 C.ar      1 UNK         0.1500 
      8 C8          5.4381    2.1797    3.4588 C.ar      1 UNK        -0.1150 
      9 O9          6.2681    1.4635   -0.0567 O.3       1 UNK        -0.5850 
     10 C10         6.1938    1.9249    2.2995 C.ar      1 UNK        -0.1150 
     11 H11         0.0115    2.3231    3.1181 H         1 UNK         0.0600 
     12 H12         1.2787    1.5575    4.0811 H         1 UNK         0.0600 
     13 H13         1.3459    3.2972    3.7426 H         1 UNK         0.0600 
     14 H14         3.6515    1.5856    0.0510 H         1 UNK         0.1150 
     15 H15         3.4840    2.4193    4.3020 H         1 UNK         0.1150 
     16 H16         5.9381    2.3440    4.4020 H         1 UNK         0.1150 
     17 H17         7.2005    1.4571    0.0954 H         1 UNK         0.4350 
     18 H18         7.2720    1.8947    2.3581 H         1 UNK         0.1150 
@<TRIPOS>BOND
     1    1    2 1    
     2    1   11 1    
     3    1   12 1    
     4    1   13 1    
     5    2    3 2    
     6    2    4 1    
     7    4    5 ar   
     8    4    6 ar   
     9    5    7 ar   
    10    5   14 1    
    11    6    8 ar   
    12    6   15 1    
    13    7    9 1    
    14    7   10 ar   
    15    8   10 ar   
    16    8   16 1    
    17    9   17 1    
    18   10   18 1    
@<TRIPOS>SUBSTRUCTURE
     1 UNK         1 GROUP             0       ****    0 ROOT    
