@<TRIPOS>MOLECULE
title: molecule 1
21   21    1
SMALL
USER_CHARGES


@<TRIPOS>ATOM
      1 C1          0.1915    1.2352    0.2549 C.2       1 UNK         0.5000 
      2 N2          1.3831    0.6235    0.3839 N.am      1 UNK        -0.3850 
      3 C3         -1.0292    0.3335    0.4039 C.3       1 UNK        -0.1800 
      4 O4          0.0337    2.4384    0.0535 O.2       1 UNK        -0.5000 
      5 C5          2.6863    1.1843    0.2928 C.ar      1 UNK         0.0850 
      6 C6          3.7372    0.4810    0.9175 C.ar      1 UNK        -0.1150 
      7 C7          2.9804    2.3722   -0.4194 C.ar      1 UNK        -0.1150 
      8 C8          5.0586    0.9644    0.8575 C.ar      1 UNK        -0.1150 
      9 C9          4.3020    2.8558   -0.4803 C.ar      1 UNK        -0.1150 
     10 C10         5.3470    2.1558    0.1604 C.ar      1 UNK        -0.1150 
     11 C11         6.7398    2.6523    0.1051 C.2       1 UNK         0.5650 
     12 O12         7.0896    3.6769   -0.4792 O.2       1 UNK        -0.4500 
     13 H13         1.3495   -0.3533    0.6362 H         1 UNK         0.3000 
     14 H14        -1.9496    0.9001    0.2585 H         1 UNK         0.0600 
     15 H15        -1.0037   -0.4691   -0.3337 H         1 UNK         0.0600 
     16 H16        -1.0561   -0.1103    1.3994 H         1 UNK         0.0600 
     17 H17         3.5335   -0.4344    1.4540 H         1 UNK         0.1150 
     18 H18         2.2115    2.9230   -0.9385 H         1 UNK         0.1150 
     19 H19         5.8466    0.4123    1.3496 H         1 UNK         0.1150 
     20 H20         4.5051    3.7654   -1.0272 H         1 UNK         0.1150 
     21 H21         7.4590    2.0275    0.6352 H         1 UNK         0.0000 
@<TRIPOS>BOND
     1    1    2 am   BACKBONE|DICT|INTERRES
     2    1    3 1    
     3    1    4 2    
     4    2    5 1    
     5    2   13 1    
     6    3   14 1    
     7    3   15 1    
     8    3   16 1    
     9    5    6 ar   
    10    5    7 ar   
    11    6    8 ar   
    12    6   17 1    
    13    7    9 ar   
    14    7   18 1    
    15    8   10 ar   
    16    8   19 1    
    17    9   10 ar   
    18    9   20 1    
    19   10   11 1    
    20   11   12 2    
    21   11   21 1    
@<TRIPOS>SUBSTRUCTURE
     1 UNK         1 GROUP             0       ****    0 ROOT    
