@<TRIPOS>MOLECULE
title: molecule 1
18   18    1
SMALL
USER_CHARGES


@<TRIPOS>ATOM
      1 C1          2.1940    0.2370    0.4361 C.2       1 UNK         0.5100 
      2 C2          3.6247    0.2382   -0.0855 C.3       1 UNK        -0.1800 
      3 O3          1.9511    0.3411    1.6393 O.2       1 UNK        -0.4300 
      4 O4          1.2879    0.1158   -0.5566 O.3       1 UNK        -0.2150 
      5 C5         -0.0515    0.0762   -0.2579 C.ar      1 UNK         0.1350 
      6 C6         -0.8733    1.1668   -0.6102 C.ar      1 UNK        -0.1150 
      7 C7         -0.6271   -1.0639    0.3464 C.ar      1 UNK        -0.1150 
      8 C8         -2.2547    1.1311   -0.3369 C.ar      1 UNK        -0.1150 
      9 C9         -2.0085   -1.0991    0.6197 C.ar      1 UNK        -0.1150 
     10 C10        -2.8220   -0.0007    0.2801 C.ar      1 UNK        -0.1150 
     11 H11         3.8353   -0.6913   -0.6145 H         1 UNK         0.0600 
     12 H12         3.7765    1.0712   -0.7720 H         1 UNK         0.0600 
     13 H13         4.3323    0.3354    0.7381 H         1 UNK         0.0600 
     14 H14        -0.4429    2.0348   -1.0879 H         1 UNK         0.1150 
     15 H15        -0.0084   -1.9111    0.6038 H         1 UNK         0.1150 
     16 H16        -2.8794    1.9711   -0.6028 H         1 UNK         0.1150 
     17 H17        -2.4441   -1.9696    1.0875 H         1 UNK         0.1150 
     18 H18        -3.8814   -0.0281    0.4890 H         1 UNK         0.1150 
@<TRIPOS>BOND
     1    1    2 1    
     2    1    3 2    
     3    1    4 1    
     4    2   11 1    
     5    2   12 1    
     6    2   13 1    
     7    4    5 1    
     8    5    6 ar   
     9    5    7 ar   
    10    6    8 ar   
    11    6   14 1    
    12    7    9 ar   
    13    7   15 1    
    14    8   10 ar   
    15    8   16 1    
    16    9   10 ar   
    17    9   17 1    
    18   10   18 1    
@<TRIPOS>SUBSTRUCTURE
     1 UNK         1 GROUP             0       ****    0 ROOT    
