@<TRIPOS>MOLECULE
title: molecule 1
19   19    1
SMALL
USER_CHARGES


@<TRIPOS>ATOM
      1 O1          6.2556   -1.1167    0.3888 O.3       1 UNK        -0.5850 
      2 C2          4.9073   -1.0299    0.1985 C.ar      1 UNK         0.1500 
      3 C3          4.0879   -2.1458    0.4585 C.ar      1 UNK        -0.1150 
      4 C4          4.3327    0.1735   -0.2568 C.ar      1 UNK        -0.1150 
      5 C5          2.6956   -2.0594    0.2632 C.ar      1 UNK        -0.1150 
      6 C6          2.9403    0.2598   -0.4521 C.ar      1 UNK        -0.1150 
      7 C7          2.1173   -0.8565   -0.1937 C.ar      1 UNK        -0.1150 
      8 C8          0.6176   -0.7623   -0.4011 C.3       1 UNK        -0.0050 
      9 C9         -0.1139   -0.2948    0.8619 C.3       1 UNK        -0.1800 
     10 H10         6.7122   -0.3147    0.1863 H         1 UNK         0.4350 
     11 H11         4.5256   -3.0692    0.8085 H         1 UNK         0.1150 
     12 H12         4.9549    1.0333   -0.4572 H         1 UNK         0.1150 
     13 H13         2.0731   -2.9185    0.4666 H         1 UNK         0.1150 
     14 H14         2.5057    1.1858   -0.7994 H         1 UNK         0.1150 
     15 H15         0.4110   -0.0767   -1.2237 H         1 UNK         0.0600 
     16 H16         0.2359   -1.7358   -0.7109 H         1 UNK         0.0600 
     17 H17        -1.1885   -0.2349    0.6888 H         1 UNK         0.0600 
     18 H18         0.0521   -0.9836    1.6907 H         1 UNK         0.0600 
     19 H19         0.2289    0.6926    1.1727 H         1 UNK         0.0600 
@<TRIPOS>BOND
     1    1    2 1    
     2    1   10 1    
     3    2    3 ar   
     4    2    4 ar   
     5    3    5 ar   
     6    3   11 1    
     7    4    6 ar   
     8    4   12 1    
     9    5    7 ar   
    10    5   13 1    
    11    6    7 ar   
    12    6   14 1    
    13    7    8 1    
    14    8    9 1    
    15    8   15 1    
    16    8   16 1    
    17    9   17 1    
    18    9   18 1    
    19    9   19 1    
@<TRIPOS>SUBSTRUCTURE
     1 UNK         1 GROUP             0       ****    0 ROOT    
