@<TRIPOS>MOLECULE
title: molecule 1
15   15    1
SMALL
USER_CHARGES


@<TRIPOS>ATOM
      1 C1          2.6030   -0.2749    0.1115 C.2       1 UNK         0.5650 
      2 C2          1.1339   -0.0977    0.1046 C.ar      1 UNK        -0.1150 
      3 O3          3.4143    0.6499    0.1023 O.2       1 UNK        -0.4500 
      4 C4          0.2952   -1.2328    0.1165 C.ar      1 UNK        -0.1150 
      5 C5          0.5601    1.1932    0.0862 C.ar      1 UNK        -0.1150 
      6 C6         -1.1051   -1.0786    0.1101 C.ar      1 UNK        -0.1150 
      7 C7         -0.8404    1.3457    0.0798 C.ar      1 UNK        -0.1150 
      8 C8         -1.6738    0.2098    0.0917 C.ar      1 UNK         0.1500 
      9 O9         -3.0304    0.3546    0.0855 O.3       1 UNK        -0.5850 
     10 H10         2.9283   -1.3154    0.1259 H         1 UNK         0.0000 
     11 H11         0.7175   -2.2274    0.1306 H         1 UNK         0.1150 
     12 H12         1.1870    2.0734    0.0769 H         1 UNK         0.1150 
     13 H13        -1.7421   -1.9511    0.1192 H         1 UNK         0.1150 
     14 H14        -1.2699    2.3367    0.0657 H         1 UNK         0.1150 
     15 H15        -3.3084    1.2576    0.0731 H         1 UNK         0.4350 
@<TRIPOS>BOND
     1    1    2 1    
     2    1    3 2    
     3    1   10 1    
     4    2    4 ar   
     5    2    5 ar   
     6    4    6 ar   
     7    4   11 1    
     8    5    7 ar   
     9    5   12 1    
    10    6    8 ar   
    11    6   13 1    
    12    7    8 ar   
    13    7   14 1    
    14    8    9 1    
    15    9   15 1    
@<TRIPOS>SUBSTRUCTURE
     1 UNK         1 GROUP             0       ****    0 ROOT    
