@<TRIPOS>MOLECULE
title: molecule 1
15   14    1
SMALL
USER_CHARGES


@<TRIPOS>ATOM
      1 C1          4.6059   -1.2055   -0.0360 C.3       1 UNK        -0.1800 
      2 C2          3.4435   -1.7003    0.8177 C.2       1 UNK         0.4700 
      3 O3          3.3321   -1.3673    1.9961 O.2       1 UNK        -0.4700 
      4 C4          2.4287   -2.6322    0.1581 C.3       1 UNK        -0.1200 
      5 C5          1.3998   -1.8020   -0.6069 C.2       1 UNK         0.4700 
      6 O6          1.5070   -1.6102   -1.8168 O.2       1 UNK        -0.4700 
      7 C7          0.2286   -1.2278    0.1826 C.3       1 UNK        -0.1800 
      8 H8          5.3322   -0.6729    0.5783 H         1 UNK         0.0600 
      9 H9          5.1089   -2.0451   -0.5157 H         1 UNK         0.0600 
     10 H10         4.2455   -0.5283   -0.8104 H         1 UNK         0.0600 
     11 H11         2.9383   -3.3129   -0.5241 H         1 UNK         0.0600 
     12 H12         1.9294   -3.2347    0.9172 H         1 UNK         0.0600 
     13 H13        -0.5049   -0.7828   -0.4901 H         1 UNK         0.0600 
     14 H14        -0.2622   -2.0126    0.7583 H         1 UNK         0.0600 
     15 H15         0.5774   -0.4584    0.8715 H         1 UNK         0.0600 
@<TRIPOS>BOND
     1    1    2 1    
     2    1    8 1    
     3    1    9 1    
     4    1   10 1    
     5    2    3 2    
     6    2    4 1    
     7    4    5 1    
     8    4   11 1    
     9    4   12 1    
    10    5    6 2    
    11    5    7 1    
    12    7   13 1    
    13    7   14 1    
    14    7   15 1    
@<TRIPOS>SUBSTRUCTURE
     1 UNK         1 GROUP             0       ****    0 ROOT    
