@<TRIPOS>MOLECULE
title: molecule 1
25   24    1
SMALL
USER_CHARGES


@<TRIPOS>ATOM
      1 C1          1.7524   -1.6223    0.2855 C.3       1 UNK        -0.0600 
      2 C2          1.0421   -0.3403   -0.2008 C.3       1 UNK        -0.1200 
      3 C3          0.8737   -2.8448    0.0011 C.2       1 UNK         0.4500 
      4 C4          3.1666   -1.7849   -0.3199 C.3       1 UNK        -0.1200 
      5 C5          1.5854    0.9434    0.4419 C.3       1 UNK        -0.1800 
      6 O6          0.8148   -3.7801    0.7969 O.2       1 UNK        -0.4500 
      7 C7          3.9967   -2.9291    0.2915 C.3       1 UNK        -0.1200 
      8 C8          5.4253   -2.9825   -0.2687 C.3       1 UNK        -0.1200 
      9 C9          6.2529   -4.1211    0.3379 C.3       1 UNK        -0.1800 
     10 H10         1.8484   -1.5580    1.3701 H         1 UNK         0.0600 
     11 H11         1.1155   -0.2619   -1.2865 H         1 UNK         0.0600 
     12 H12        -0.0244   -0.3974    0.0246 H         1 UNK         0.0600 
     13 H13         0.3182   -2.8205   -0.9366 H         1 UNK         0.0000 
     14 H14         3.0913   -1.9261   -1.3993 H         1 UNK         0.0600 
     15 H15         3.7222   -0.8578   -0.1820 H         1 UNK         0.0600 
     16 H16         1.0147    1.8110    0.1102 H         1 UNK         0.0600 
     17 H17         1.5163    0.8987    1.5291 H         1 UNK         0.0600 
     18 H18         2.6278    1.1197    0.1784 H         1 UNK         0.0600 
     19 H19         4.0376   -2.8066    1.3746 H         1 UNK         0.0600 
     20 H20         3.5099   -3.8871    0.1073 H         1 UNK         0.0600 
     21 H21         5.3892   -3.1031   -1.3520 H         1 UNK         0.0600 
     22 H22         5.9292   -2.0338   -0.0804 H         1 UNK         0.0600 
     23 H23         7.2604   -4.1334   -0.0783 H         1 UNK         0.0600 
     24 H24         6.3410   -4.0111    1.4191 H         1 UNK         0.0600 
     25 H25         5.7973   -5.0907    0.1350 H         1 UNK         0.0600 
@<TRIPOS>BOND
     1    1    2 1    
     2    1    3 1    
     3    1    4 1    
     4    1   10 1    
     5    2    5 1    
     6    2   11 1    
     7    2   12 1    
     8    3    6 2    
     9    3   13 1    
    10    4    7 1    
    11    4   14 1    
    12    4   15 1    
    13    5   16 1    
    14    5   17 1    
    15    5   18 1    
    16    7    8 1    
    17    7   19 1    
    18    7   20 1    
    19    8    9 1    
    20    8   21 1    
    21    8   22 1    
    22    9   23 1    
    23    9   24 1    
    24    9   25 1    
@<TRIPOS>SUBSTRUCTURE
     1 UNK         1 GROUP             0       ****    0 ROOT    
