@<TRIPOS>MOLECULE
title: molecule 1
26   25    1
SMALL
USER_CHARGES


@<TRIPOS>ATOM
      1 C1         -1.7978    0.6181    0.0987 C.2       1 UNK         0.5100 
      2 C2         -0.5551   -0.2726    0.1070 C.3       1 UNK        -0.1200 
      3 O3         -1.7277    1.8485    0.0898 O.2       1 UNK        -0.4300 
      4 O4         -2.9312   -0.1005    0.1022 O.3       1 UNK        -0.3300 
      5 C5          0.7622    0.5256    0.1032 C.3       1 UNK        -0.1200 
      6 C6         -4.1834    0.5651    0.0955 C.3       1 UNK         0.1900 
      7 C7          2.0049   -0.3652    0.1119 C.2       1 UNK         0.5100 
      8 C8         -5.3088   -0.4724    0.1014 C.3       1 UNK        -0.1800 
      9 O9          1.9349   -1.5956    0.1208 O.2       1 UNK        -0.4300 
     10 O10         3.1384    0.3534    0.1085 O.3       1 UNK        -0.3300 
     11 C11         4.3905   -0.3122    0.1155 C.3       1 UNK         0.1900 
     12 C12         5.5160    0.7253    0.1099 C.3       1 UNK        -0.1800 
     13 H13        -0.5994   -0.9144    0.9875 H         1 UNK         0.0600 
     14 H14        -0.5967   -0.9270   -0.7644 H         1 UNK         0.0600 
     15 H15         0.8067    1.1671   -0.7774 H         1 UNK         0.0600 
     16 H16         0.8038    1.1801    0.9745 H         1 UNK         0.0600 
     17 H17        -4.2647    1.2107    0.9711 H         1 UNK         0.0300 
     18 H18        -4.2621    1.1980   -0.7895 H         1 UNK         0.0300 
     19 H19        -6.2842    0.0141    0.0965 H         1 UNK         0.0600 
     20 H20        -5.2523   -1.1172   -0.7759 H         1 UNK         0.0600 
     21 H21        -5.2549   -1.1044    0.9881 H         1 UNK         0.0600 
     22 H22         4.4691   -0.9450    1.0007 H         1 UNK         0.0300 
     23 H23         4.4721   -0.9579   -0.7600 H         1 UNK         0.0300 
     24 H24         6.4914    0.2388    0.1151 H         1 UNK         0.0600 
     25 H25         5.4623    1.3573   -0.7769 H         1 UNK         0.0600 
     26 H26         5.4593    1.3702    0.9871 H         1 UNK         0.0600 
@<TRIPOS>BOND
     1    1    2 1    
     2    1    3 2    
     3    1    4 1    
     4    2    5 1    
     5    2   13 1    
     6    2   14 1    
     7    4    6 1    
     8    5    7 1    
     9    5   15 1    
    10    5   16 1    
    11    6    8 1    
    12    6   17 1    
    13    6   18 1    
    14    7    9 2    
    15    7   10 1    
    16    8   19 1    
    17    8   20 1    
    18    8   21 1    
    19   10   11 1    
    20   11   12 1    
    21   11   22 1    
    22   11   23 1    
    23   12   24 1    
    24   12   25 1    
    25   12   26 1    
@<TRIPOS>SUBSTRUCTURE
     1 UNK         1 GROUP             0       ****    0 ROOT    
