@<TRIPOS>MOLECULE
title: molecule 1
25   24    1
SMALL
USER_CHARGES


@<TRIPOS>ATOM
      1 C1         -0.3537   -0.5804    0.1231 C.3       1 UNK        -0.1800 
      2 C2          0.9331    0.2523    0.1218 C.3       1 UNK        -0.1200 
      3 C3          2.1984   -0.6176    0.1101 C.3       1 UNK        -0.1200 
      4 C4          3.4878    0.2165    0.1088 C.3       1 UNK        -0.1200 
      5 C5          4.7530   -0.6537    0.0971 C.3       1 UNK        -0.1200 
      6 C6          6.0423    0.1796    0.0958 C.3       1 UNK        -0.1200 
      7 C7          7.3016   -0.7001    0.0841 C.3       1 UNK        -0.1200 
      8 C8          8.5830    0.1281    0.0828 C.2       1 UNK         0.4500 
      9 O9          9.6825   -0.4207    0.0739 O.2       1 UNK        -0.4500 
     10 H10        -1.2331    0.0639    0.1315 H         1 UNK         0.0600 
     11 H11        -0.4140   -1.2138   -0.7624 H         1 UNK         0.0600 
     12 H12        -0.4052   -1.2247    1.0011 H         1 UNK         0.0600 
     13 H13         0.9333    0.9108   -0.7476 H         1 UNK         0.0600 
     14 H14         0.9420    0.8999    0.9993 H         1 UNK         0.0600 
     15 H15         2.1932   -1.2761    0.9796 H         1 UNK         0.0600 
     16 H16         2.1845   -1.2652   -0.7675 H         1 UNK         0.0600 
     17 H17         3.4925    0.8750   -0.7607 H         1 UNK         0.0600 
     18 H18         3.5012    0.8641    0.9864 H         1 UNK         0.0600 
     19 H19         4.7484   -1.3122    0.9667 H         1 UNK         0.0600 
     20 H20         4.7397   -1.3014   -0.7805 H         1 UNK         0.0600 
     21 H21         6.0456    0.8377   -0.7745 H         1 UNK         0.0600 
     22 H22         6.0543    0.8268    0.9742 H         1 UNK         0.0600 
     23 H23         7.3109   -1.3537    0.9567 H         1 UNK         0.0600 
     24 H24         7.3021   -1.3428   -0.7966 H         1 UNK         0.0600 
     25 H25         8.4536    1.2107    0.0902 H         1 UNK         0.0000 
@<TRIPOS>BOND
     1    1    2 1    
     2    1   10 1    
     3    1   11 1    
     4    1   12 1    
     5    2    3 1    
     6    2   13 1    
     7    2   14 1    
     8    3    4 1    
     9    3   15 1    
    10    3   16 1    
    11    4    5 1    
    12    4   17 1    
    13    4   18 1    
    14    5    6 1    
    15    5   19 1    
    16    5   20 1    
    17    6    7 1    
    18    6   21 1    
    19    6   22 1    
    20    7    8 1    
    21    7   23 1    
    22    7   24 1    
    23    8    9 2    
    24    8   25 1    
@<TRIPOS>SUBSTRUCTURE
     1 UNK         1 GROUP             0       ****    0 ROOT    
