@<TRIPOS>MOLECULE
title: molecule 1
21   21    1
SMALL
USER_CHARGES


@<TRIPOS>ATOM
      1 C1          3.9486   -2.9318   -1.3740 C.3       1 UNK        -0.1800 
      2 C2          3.6537   -2.3952    0.0416 C.3       1 UNK         0.3800 
      3 C3          2.2551   -1.7618    0.1081 C.ar      1 UNK        -0.1150 
      4 O4          3.7725   -3.5270    0.8829 O.3       1 UNK        -0.6830 
      5 C5          4.6665   -1.3992    0.4437 C.1       1 UNK         0.0100 
      6 C6          1.2954   -2.1890    1.0589 C.ar      1 UNK        -0.1150 
      7 C7          1.9011   -0.7229   -0.7872 C.ar      1 UNK        -0.1150 
      8 C8          5.5115   -0.5789    0.7676 C.1       1 UNK        -0.2100 
      9 C9          0.0180   -1.5976    1.1074 C.ar      1 UNK        -0.1150 
     10 C10         0.6241   -0.1316   -0.7385 C.ar      1 UNK        -0.1150 
     11 C11        -0.3194   -0.5695    0.2084 C.ar      1 UNK        -0.1150 
     12 H12         3.2041   -3.6694   -1.6768 H         1 UNK         0.0600 
     13 H13         3.9451   -2.1409   -2.1246 H         1 UNK         0.0600 
     14 H14         4.9256   -3.4149   -1.4267 H         1 UNK         0.0600 
     15 H15         4.5799   -3.9711    0.6746 H         1 UNK         0.4180 
     16 H16         1.5238   -2.9732    1.7651 H         1 UNK         0.1150 
     17 H17         2.6125   -0.3665   -1.5172 H         1 UNK         0.1150 
     18 H18         6.2468    0.1392    1.0537 H         1 UNK         0.2000 
     19 H19        -0.7038   -1.9339    1.8371 H         1 UNK         0.1150 
     20 H20         0.3694    0.6600   -1.4278 H         1 UNK         0.1150 
     21 H21        -1.2990   -0.1163    0.2468 H         1 UNK         0.1150 
@<TRIPOS>BOND
     1    1    2 1    
     2    1   12 1    
     3    1   13 1    
     4    1   14 1    
     5    2    3 1    
     6    2    4 1    
     7    2    5 1    
     8    3    6 ar   
     9    3    7 ar   
    10    4   15 1    
    11    5    8 3    
    12    6    9 ar   
    13    6   16 1    
    14    7   10 ar   
    15    7   17 1    
    16    8   18 1    
    17    9   11 ar   
    18    9   19 1    
    19   10   11 ar   
    20   10   20 1    
    21   11   21 1    
@<TRIPOS>SUBSTRUCTURE
     1 UNK         1 GROUP             0       ****    0 ROOT    
