@<TRIPOS>MOLECULE
title: molecule 1
16   16    1
SMALL
USER_CHARGES


@<TRIPOS>ATOM
      1 Cl1         1.5519   -1.2224    4.5012 Cl        1 UNK        -0.1800 
      2 C2          1.8996   -1.0634    2.8142 C.ar      1 UNK         0.1800 
      3 C3          3.0496   -1.6477    2.2240 C.ar      1 UNK         0.0900 
      4 C4          1.0167   -0.3025    2.0231 C.ar      1 UNK        -0.1150 
      5 N5          3.9987   -2.4594    3.0029 N.pl3     1 UNK         0.6500 
      6 C6          3.2973   -1.4401    0.8485 C.ar      1 UNK        -0.1150 
      7 C7          1.2686   -0.1112    0.6523 C.ar      1 UNK        -0.1150 
      8 O8          3.5526   -3.3208    3.7530 O.co2     1 UNK        -0.3700 
      9 O9          5.1950   -2.2519    2.8302 O.co2     1 UNK        -0.3700 
     10 C10         2.4159   -0.6786    0.0555 C.ar      1 UNK         0.0788 
     11 N11         2.7029   -0.5083   -1.2975 N.2       1 UNK        -0.3151 
     12 C12         2.1824    0.0646   -2.2406 C.1       1 UNK         0.2438 
     13 S13         1.5457    0.9108   -3.4308 S.2       1 UNK        -0.0075 
     14 H14         0.1417    0.1443    2.4719 H         1 UNK         0.1150 
     15 H15         4.1738   -1.8788    0.3930 H         1 UNK         0.1150 
     16 H16         0.5775    0.4774    0.0666 H         1 UNK         0.1150 
@<TRIPOS>BOND
     1    1    2 1    
     2    2    3 ar   
     3    2    4 ar   
     4    3    5 1    
     5    3    6 ar   
     6    4    7 ar   
     7    4   14 1    
     8    5    8 1    
     9    5    9 2    
    10    6   10 ar   
    11    6   15 1    
    12    7   10 ar   
    13    7   16 1    
    14   10   11 1    
    15   11   12 2    
    16   12   13 2    
@<TRIPOS>SUBSTRUCTURE
     1 UNK         1 GROUP             0       ****    0 ROOT    
