@<TRIPOS>MOLECULE
title: molecule 1
35   35    1
SMALL
USER_CHARGES


@<TRIPOS>ATOM
      1 C1         11.1113   -1.7196    0.1010 C.ar      1 UNK         0.1500 
      2 C2         10.0557   -0.7886    0.1016 C.ar      1 UNK        -0.1150 
      3 C3         10.8279   -3.0984    0.1009 C.ar      1 UNK        -0.1150 
      4 O4         12.4043   -1.2841    0.1005 O.3       1 UNK        -0.5850 
      5 C5          8.7189   -1.2328    0.1021 C.ar      1 UNK        -0.1150 
      6 C6          9.4911   -3.5415    0.1014 C.ar      1 UNK        -0.1150 
      7 C7          8.4236   -2.6199    0.1020 C.ar      1 UNK         0.0850 
      8 O8          7.1477   -3.1417    0.1025 O.3       1 UNK        -0.2850 
      9 C9          6.0508   -2.2384    0.1031 C.3       1 UNK         0.1400 
     10 C10         4.7492   -3.0486    0.1036 C.3       1 UNK        -0.1200 
     11 C11         3.4988   -2.1571    0.1042 C.3       1 UNK        -0.1200 
     12 C12         2.1954   -2.9692    0.1047 C.3       1 UNK        -0.1200 
     13 C13         0.9450   -2.0776    0.1054 C.3       1 UNK        -0.1200 
     14 C14        -0.3583   -2.8894    0.1058 C.3       1 UNK        -0.1200 
     15 C15        -1.6061   -1.9994    0.1065 C.3       1 UNK        -0.1800 
     16 H16        10.2694    0.2703    0.1017 H         1 UNK         0.1150 
     17 H17        11.6309   -3.8208    0.1004 H         1 UNK         0.1150 
     18 H18        13.0344   -1.9881    0.1001 H         1 UNK         0.4350 
     19 H19         7.9378   -0.4882    0.1026 H         1 UNK         0.1150 
     20 H20         9.2817   -4.6011    0.1013 H         1 UNK         0.1150 
     21 H21         6.0879   -1.6006    0.9877 H         1 UNK         0.0300 
     22 H22         6.0871   -1.6003   -0.7813 H         1 UNK         0.0300 
     23 H23         4.7316   -3.7011   -0.7702 H         1 UNK         0.0600 
     24 H24         4.7323   -3.7014    0.9771 H         1 UNK         0.0600 
     25 H25         3.5197   -1.5045    0.9780 H         1 UNK         0.0600 
     26 H26         3.5189   -1.5042   -0.7693 H         1 UNK         0.0600 
     27 H27         2.1746   -3.6218   -0.7690 H         1 UNK         0.0600 
     28 H28         2.1754   -3.6221    0.9782 H         1 UNK         0.0600 
     29 H29         0.9655   -1.4249    0.9791 H         1 UNK         0.0600 
     30 H30         0.9647   -1.4246   -0.7681 H         1 UNK         0.0600 
     31 H31        -0.3837   -3.5418   -0.7677 H         1 UNK         0.0600 
     32 H32        -0.3829   -3.5421    0.9792 H         1 UNK         0.0600 
     33 H33        -2.5138   -2.6032    0.1068 H         1 UNK         0.0600 
     34 H34        -1.6327   -1.3588    0.9884 H         1 UNK         0.0600 
     35 H35        -1.6334   -1.3585   -0.7752 H         1 UNK         0.0600 
@<TRIPOS>BOND
     1    1    2 ar   
     2    1    3 ar   
     3    1    4 1    
     4    2    5 ar   
     5    2   16 1    
     6    3    6 ar   
     7    3   17 1    
     8    4   18 1    
     9    5    7 ar   
    10    5   19 1    
    11    6    7 ar   
    12    6   20 1    
    13    7    8 1    
    14    8    9 1    
    15    9   10 1    
    16    9   21 1    
    17    9   22 1    
    18   10   11 1    
    19   10   23 1    
    20   10   24 1    
    21   11   12 1    
    22   11   25 1    
    23   11   26 1    
    24   12   13 1    
    25   12   27 1    
    26   12   28 1    
    27   13   14 1    
    28   13   29 1    
    29   13   30 1    
    30   14   15 1    
    31   14   31 1    
    32   14   32 1    
    33   15   33 1    
    34   15   34 1    
    35   15   35 1    
@<TRIPOS>SUBSTRUCTURE
     1 UNK         1 GROUP             0       ****    0 ROOT    
