@<TRIPOS>MOLECULE
title: molecule 1
29   28    1
SMALL
USER_CHARGES


@<TRIPOS>ATOM
      1 C1          9.0167    4.5357    0.2234 C.3       1 UNK        -0.1800 
      2 C2          7.5327    4.8271    0.4593 C.3       1 UNK         0.1900 
      3 O3          7.0968    4.1303    1.6148 O.3       1 UNK        -0.3300 
      4 C4          5.8147    4.2273    2.0085 C.2       1 UNK         0.5100 
      5 C5          5.5407    3.3963    3.2793 C.3       1 UNK        -0.0600 
      6 O6          4.9513    4.8983    1.4362 O.2       1 UNK        -0.4300 
      7 C7          4.1701    3.7462    3.8872 C.2       1 UNK         0.5100 
      8 C8          5.7152    1.8794    3.0185 C.3       1 UNK        -0.1200 
      9 O9          3.1269    3.2630    3.1776 O.3       1 UNK        -0.3300 
     10 O10         4.0870    4.4096    4.9214 O.2       1 UNK        -0.4300 
     11 C11         5.6498    1.0153    4.2873 C.3       1 UNK        -0.1800 
     12 C12         1.7924    3.5263    3.5866 C.3       1 UNK         0.1900 
     13 C13         1.3118    4.8753    3.0362 C.3       1 UNK        -0.1800 
     14 H14         9.3786    5.0599   -0.6611 H         1 UNK         0.0600 
     15 H15         9.6194    4.8577    1.0729 H         1 UNK         0.0600 
     16 H16         9.1879    3.4694    0.0737 H         1 UNK         0.0600 
     17 H17         7.3772    5.8986    0.5920 H         1 UNK         0.0300 
     18 H18         6.9475    4.5130   -0.4061 H         1 UNK         0.0300 
     19 H19         6.2933    3.6982    4.0086 H         1 UNK         0.0600 
     20 H20         4.9663    1.5299    2.3061 H         1 UNK         0.0600 
     21 H21         6.6794    1.6989    2.5416 H         1 UNK         0.0600 
     22 H22         5.8410   -0.0315    4.0508 H         1 UNK         0.0600 
     23 H23         6.3960    1.3317    5.0166 H         1 UNK         0.0600 
     24 H24         4.6705    1.0686    4.7633 H         1 UNK         0.0600 
     25 H25         1.1564    2.7293    3.2012 H         1 UNK         0.0300 
     26 H26         1.7040    3.4972    4.6737 H         1 UNK         0.0300 
     27 H27         0.2746    5.0597    3.3158 H         1 UNK         0.0600 
     28 H28         1.9117    5.6991    3.4236 H         1 UNK         0.0600 
     29 H29         1.3741    4.8981    1.9480 H         1 UNK         0.0600 
@<TRIPOS>BOND
     1    1    2 1    
     2    1   14 1    
     3    1   15 1    
     4    1   16 1    
     5    2    3 1    
     6    2   17 1    
     7    2   18 1    
     8    3    4 1    
     9    4    5 1    
    10    4    6 2    
    11    5    7 1    
    12    5    8 1    
    13    5   19 1    
    14    7    9 1    
    15    7   10 2    
    16    8   11 1    
    17    8   20 1    
    18    8   21 1    
    19    9   12 1    
    20   11   22 1    
    21   11   23 1    
    22   11   24 1    
    23   12   13 1    
    24   12   25 1    
    25   12   26 1    
    26   13   27 1    
    27   13   28 1    
    28   13   29 1    
@<TRIPOS>SUBSTRUCTURE
     1 UNK         1 GROUP             0       ****    0 ROOT    
