@<TRIPOS>MOLECULE
title: molecule 1
24   25    1
SMALL
USER_CHARGES


@<TRIPOS>ATOM
      1 O1          2.7010    3.8465    0.1180 O.2       1 UNK        -0.4700 
      2 C2          2.6940    2.6150    0.1226 C.2       1 UNK         0.7000 
      3 C3          3.9669    1.8411    0.1707 C.ar      1 UNK        -0.1150 
      4 C4          1.4129    1.8548    0.0799 C.ar      1 UNK        -0.1150 
      5 C5          5.0606    2.3496    0.9074 C.ar      1 UNK        -0.1150 
      6 C6          4.1193    0.6244   -0.5353 C.ar      1 UNK        -0.1150 
      7 C7          0.3259    2.3681   -0.6635 C.ar      1 UNK        -0.1150 
      8 C8          1.2462    0.6467    0.7974 C.ar      1 UNK        -0.1150 
      9 C9          6.2788    1.6441    0.9556 C.ar      1 UNK        -0.1150 
     10 C10         5.3379   -0.0804   -0.4864 C.ar      1 UNK        -0.1150 
     11 C11        -0.8996    1.6752   -0.7071 C.ar      1 UNK        -0.1150 
     12 C12         0.0202   -0.0453    0.7530 C.ar      1 UNK        -0.1150 
     13 C13         6.4176    0.4277    0.2606 C.ar      1 UNK         0.1800 
     14 C14        -1.0523    0.4672   -0.0009 C.ar      1 UNK        -0.1150 
     15 Cl15        7.9099   -0.4361    0.3198 Cl        1 UNK        -0.1800 
     16 H16         4.9713    3.2829    1.4451 H         1 UNK         0.1150 
     17 H17         3.3070    0.2235   -1.1244 H         1 UNK         0.1150 
     18 H18         0.4263    3.2952   -1.2099 H         1 UNK         0.1150 
     19 H19         2.0530    0.2429    1.3919 H         1 UNK         0.1150 
     20 H20         7.1070    2.0386    1.5258 H         1 UNK         0.1150 
     21 H21         5.4439   -1.0100   -1.0262 H         1 UNK         0.1150 
     22 H22        -1.7236    2.0720   -1.2818 H         1 UNK         0.1150 
     23 H23        -0.0984   -0.9684    1.3012 H         1 UNK         0.1150 
     24 H24        -1.9925   -0.0633   -0.0338 H         1 UNK         0.1150 
@<TRIPOS>BOND
     1    1    2 2    
     2    2    3 1    
     3    2    4 1    
     4    3    5 ar   
     5    3    6 ar   
     6    4    7 ar   
     7    4    8 ar   
     8    5    9 ar   
     9    5   16 1    
    10    6   10 ar   
    11    6   17 1    
    12    7   11 ar   
    13    7   18 1    
    14    8   12 ar   
    15    8   19 1    
    16    9   13 ar   
    17    9   20 1    
    18   10   13 ar   
    19   10   21 1    
    20   11   14 ar   
    21   11   22 1    
    22   12   14 ar   
    23   12   23 1    
    24   13   15 1    
    25   14   24 1    
@<TRIPOS>SUBSTRUCTURE
     1 UNK         1 GROUP             0       ****    0 ROOT    
