@<TRIPOS>MOLECULE
title: molecule 1
27   28    1
SMALL
USER_CHARGES


@<TRIPOS>ATOM
      1 O1         -0.5236    2.4147    1.0050 O.2       1 UNK        -0.4700 
      2 C2         -0.3825    1.2747    0.5609 C.2       1 UNK         0.7000 
      3 C3          0.9746    0.7043    0.3290 C.ar      1 UNK        -0.1150 
      4 C4         -1.5641    0.4250    0.2397 C.ar      1 UNK        -0.1150 
      5 C5          2.0294    1.0446    1.2052 C.ar      1 UNK        -0.1150 
      6 C6          1.2420   -0.1427   -0.7720 C.ar      1 UNK        -0.1150 
      7 C7         -2.7366    1.0299   -0.2671 C.ar      1 UNK        -0.1150 
      8 C8         -1.5528   -0.9720    0.4649 C.ar      1 UNK        -0.1150 
      9 C9          3.3240    0.5299    0.9985 C.ar      1 UNK        -0.1150 
     10 C10         2.5367   -0.6571   -0.9782 C.ar      1 UNK        -0.1150 
     11 C11        -3.8711    0.2497   -0.5642 C.ar      1 UNK        -0.1150 
     12 C12        -2.6879   -1.7511    0.1674 C.ar      1 UNK        -0.1150 
     13 C13         3.5807   -0.3256   -0.0917 C.ar      1 UNK        -0.1150 
     14 C14        -3.8465   -1.1412   -0.3494 C.ar      1 UNK        -0.1150 
     15 C15         4.9738   -0.8764   -0.3157 C.3       1 UNK        -0.0650 
     16 H16         1.8519    1.7001    2.0460 H         1 UNK         0.1150 
     17 H17         0.4596   -0.4010   -1.4711 H         1 UNK         0.1150 
     18 H18        -2.7724    2.0967   -0.4361 H         1 UNK         0.1150 
     19 H19        -0.6777   -1.4575    0.8723 H         1 UNK         0.1150 
     20 H20         4.1195    0.7959    1.6792 H         1 UNK         0.1150 
     21 H21         2.7260   -1.3042   -1.8223 H         1 UNK         0.1150 
     22 H22        -4.7613    0.7194   -0.9560 H         1 UNK         0.1150 
     23 H23        -2.6706   -2.8172    0.3394 H         1 UNK         0.1150 
     24 H24        -4.7169   -1.7390   -0.5765 H         1 UNK         0.1150 
     25 H25         4.9330   -1.8518   -0.8015 H         1 UNK         0.0600 
     26 H26         5.5478   -0.2002   -0.9495 H         1 UNK         0.0600 
     27 H27         5.5027   -0.9933    0.6306 H         1 UNK         0.0600 
@<TRIPOS>BOND
     1    1    2 2    
     2    2    3 1    
     3    2    4 1    
     4    3    5 ar   
     5    3    6 ar   
     6    4    7 ar   
     7    4    8 ar   
     8    5    9 ar   
     9    5   16 1    
    10    6   10 ar   
    11    6   17 1    
    12    7   11 ar   
    13    7   18 1    
    14    8   12 ar   
    15    8   19 1    
    16    9   13 ar   
    17    9   20 1    
    18   10   13 ar   
    19   10   21 1    
    20   11   14 ar   
    21   11   22 1    
    22   12   14 ar   
    23   12   23 1    
    24   13   15 1    
    25   14   24 1    
    26   15   25 1    
    27   15   26 1    
    28   15   27 1    
@<TRIPOS>SUBSTRUCTURE
     1 UNK         1 GROUP             0       ****    0 ROOT    
