@<TRIPOS>MOLECULE
title: molecule 1
18   17    1
SMALL
USER_CHARGES


@<TRIPOS>ATOM
      1 C1          3.3555    0.7518    0.9992 C.2       1 UNK        -0.1150 
      2 C2          4.1377    1.5505    1.7519 C.2       1 UNK        -0.1150 
      3 C3          1.9031    0.8475    0.9732 C.2       1 UNK         0.5200 
      4 C4          5.6497    1.4635    1.7904 C.3       1 UNK        -0.1200 
      5 O5          1.3963    1.8248    1.7815 O.3       1 UNK        -0.5300 
      6 O6          1.1779    0.1256    0.2936 O.2       1 UNK        -0.4400 
      7 C7          6.3117    2.7817    1.3664 C.3       1 UNK        -0.1200 
      8 C8          7.8421    2.7106    1.4080 C.3       1 UNK        -0.1800 
      9 H9          3.8222   -0.0005    0.3801 H         1 UNK         0.1150 
     10 H10         3.7100    2.3146    2.3854 H         1 UNK         0.1150 
     11 H11         5.9509    1.2043    2.8059 H         1 UNK         0.0600 
     12 H12         5.9883    0.6516    1.1451 H         1 UNK         0.0600 
     13 H13         0.4532    1.8629    1.7436 H         1 UNK         0.4500 
     14 H14         5.9919    3.0433    0.3570 H         1 UNK         0.0600 
     15 H15         5.9726    3.5890    2.0167 H         1 UNK         0.0600 
     16 H16         8.2835    3.6593    1.1022 H         1 UNK         0.0600 
     17 H17         8.1988    2.4866    2.4137 H         1 UNK         0.0600 
     18 H18         8.2189    1.9373    0.7380 H         1 UNK         0.0600 
@<TRIPOS>BOND
     1    1    2 2    
     2    1    3 1    
     3    1    9 1    
     4    2    4 1    
     5    2   10 1    
     6    3    5 1    
     7    3    6 2    
     8    4    7 1    
     9    4   11 1    
    10    4   12 1    
    11    5   13 1    
    12    7    8 1    
    13    7   14 1    
    14    7   15 1    
    15    8   16 1    
    16    8   17 1    
    17    8   18 1    
@<TRIPOS>SUBSTRUCTURE
     1 UNK         1 GROUP             0       ****    0 ROOT    
