@<TRIPOS>MOLECULE
title: molecule 1
17   16    1
SMALL
USER_CHARGES


@<TRIPOS>ATOM
      1 O1         -0.2769    0.1428    0.0909 O.3       1 UNK        -0.3300 
      2 C2          0.9481    0.7100    0.1015 C.2       1 UNK         0.5100 
      3 C3         -1.4347    0.9612    0.0988 C.3       1 UNK         0.1900 
      4 O4          1.1339    1.9284    0.1182 O.2       1 UNK        -0.4300 
      5 C5          2.0544   -0.2815    0.0912 C.2       1 UNK         0.0000 
      6 C6         -2.6327    0.1086    0.0844 C.1       1 UNK         0.0100 
      7 C7          3.4606    0.2931    0.1024 C.3       1 UNK        -0.1800 
      8 C8          1.8234   -1.6095    0.0730 C.2       1 UNK        -0.2300 
      9 C9         -3.6208   -0.6087    0.0725 C.1       1 UNK        -0.2100 
     10 H10        -1.4601    1.5858    0.9926 H         1 UNK         0.0300 
     11 H11        -1.4556    1.6093   -0.7783 H         1 UNK         0.0300 
     12 H12         4.2114   -0.4977    0.0938 H         1 UNK         0.0600 
     13 H13         3.6251    0.9215   -0.7737 H         1 UNK         0.0600 
     14 H14         3.6206    0.8981    0.9957 H         1 UNK         0.0600 
     15 H15         2.6469   -2.3083    0.0659 H         1 UNK         0.1150 
     16 H16         0.8297   -2.0335    0.0649 H         1 UNK         0.1150 
     17 H17        -4.4820   -1.2384    0.0620 H         1 UNK         0.2000 
@<TRIPOS>BOND
     1    1    2 1    
     2    1    3 1    
     3    2    4 2    
     4    2    5 1    
     5    3    6 1    
     6    3   10 1    
     7    3   11 1    
     8    5    7 1    
     9    5    8 2    
    10    6    9 3    
    11    7   12 1    
    12    7   13 1    
    13    7   14 1    
    14    8   15 1    
    15    8   16 1    
    16    9   17 1    
@<TRIPOS>SUBSTRUCTURE
     1 UNK         1 GROUP             0       ****    0 ROOT    
