@<TRIPOS>MOLECULE
title: molecule 1
23   23    1
SMALL
USER_CHARGES


@<TRIPOS>ATOM
      1 C1          0.0719    0.5788    0.5188 C.2       1 UNK        -0.2300 
      2 C2          1.1266   -0.2334    0.6829 C.2       1 UNK        -0.1150 
      3 C3          1.8515   -0.9320   -0.4484 C.3       1 UNK        -0.0050 
      4 C4          3.3422   -1.0660   -0.2040 C.ar      1 UNK        -0.1150 
      5 C5          3.8618   -2.2206    0.4145 C.ar      1 UNK        -0.1150 
      6 C6          4.2180   -0.0319   -0.5905 C.ar      1 UNK        -0.1150 
      7 C7          5.2465   -2.3381    0.6416 C.ar      1 UNK        -0.1150 
      8 C8          5.6030   -0.1504   -0.3629 C.ar      1 UNK        -0.1150 
      9 C9          6.1320   -1.3102    0.2579 C.ar      1 UNK         0.0850 
     10 O10         7.4712   -1.5078    0.5178 O.3       1 UNK        -0.2850 
     11 C11         8.3831   -0.4866    0.1406 C.3       1 UNK         0.1100 
     12 H12        -0.4103    1.0408    1.3678 H         1 UNK         0.1150 
     13 H13        -0.3240    0.7932   -0.4632 H         1 UNK         0.1150 
     14 H14         1.4875   -0.4331    1.6817 H         1 UNK         0.1150 
     15 H15         1.4235   -1.9285   -0.5639 H         1 UNK         0.0600 
     16 H16         1.6735   -0.4075   -1.3882 H         1 UNK         0.0600 
     17 H17         3.2010   -3.0193    0.7183 H         1 UNK         0.1150 
     18 H18         3.8289    0.8584   -1.0627 H         1 UNK         0.1150 
     19 H19         5.6342   -3.2275    1.1164 H         1 UNK         0.1150 
     20 H20         6.2392    0.6640   -0.6739 H         1 UNK         0.1150 
     21 H21         9.3945   -0.7899    0.4104 H         1 UNK         0.0300 
     22 H22         8.3669   -0.3154   -0.9366 H         1 UNK         0.0300 
     23 H23         8.1705    0.4493    0.6591 H         1 UNK         0.0300 
@<TRIPOS>BOND
     1    1    2 2    
     2    1   12 1    
     3    1   13 1    
     4    2    3 1    
     5    2   14 1    
     6    3    4 1    
     7    3   15 1    
     8    3   16 1    
     9    4    5 ar   
    10    4    6 ar   
    11    5    7 ar   
    12    5   17 1    
    13    6    8 ar   
    14    6   18 1    
    15    7    9 ar   
    16    7   19 1    
    17    8    9 ar   
    18    8   20 1    
    19    9   10 1    
    20   10   11 1    
    21   11   21 1    
    22   11   22 1    
    23   11   23 1    
@<TRIPOS>SUBSTRUCTURE
     1 UNK         1 GROUP             0       ****    0 ROOT    
