@<TRIPOS>MOLECULE
title: molecule 1
24   23    1
SMALL
USER_CHARGES


@<TRIPOS>ATOM
      1 C1          6.7677    0.3589    3.2532 C.3       1 UNK        -0.1200 
      2 C2          5.8811    1.2412    2.3767 C.2       1 UNK         0.4700 
      3 C3          6.9717    1.0334    4.6084 C.2       1 UNK         0.4700 
      4 C4          4.3656    1.1066    2.5605 C.3       1 UNK        -0.1200 
      5 O5          6.3762    2.0144    1.5569 O.2       1 UNK        -0.4700 
      6 C6          8.0676    2.0883    4.7137 C.3       1 UNK        -0.1800 
      7 O7          6.2825    0.7320    5.5810 O.2       1 UNK        -0.4700 
      8 C8          3.5461    2.0521    1.6650 C.3       1 UNK        -0.1200 
      9 C9          2.0354    1.8922    1.8837 C.3       1 UNK        -0.1200 
     10 C10         1.2095    2.8301    0.9964 C.3       1 UNK        -0.1800 
     11 H11         6.3009   -0.6168    3.3903 H         1 UNK         0.0600 
     12 H12         7.7311    0.2010    2.7679 H         1 UNK         0.0600 
     13 H13         4.0870    0.0725    2.3568 H         1 UNK         0.0600 
     14 H14         4.1279    1.2953    3.6077 H         1 UNK         0.0600 
     15 H15         8.2159    2.3835    5.7526 H         1 UNK         0.0600 
     16 H16         9.0091    1.6974    4.3278 H         1 UNK         0.0600 
     17 H17         7.7972    2.9735    4.1379 H         1 UNK         0.0600 
     18 H18         3.8312    3.0863    1.8643 H         1 UNK         0.0600 
     19 H19         3.7803    1.8613    0.6166 H         1 UNK         0.0600 
     20 H20         1.7441    0.8603    1.6843 H         1 UNK         0.0600 
     21 H21         1.7951    2.0840    2.9301 H         1 UNK         0.0600 
     22 H22         0.1426    2.6936    1.1741 H         1 UNK         0.0600 
     23 H23         1.4490    3.8747    1.1971 H         1 UNK         0.0600 
     24 H24         1.3976    2.6396   -0.0606 H         1 UNK         0.0600 
@<TRIPOS>BOND
     1    1    2 1    
     2    1    3 1    
     3    1   11 1    
     4    1   12 1    
     5    2    4 1    
     6    2    5 2    
     7    3    6 1    
     8    3    7 2    
     9    4    8 1    
    10    4   13 1    
    11    4   14 1    
    12    6   15 1    
    13    6   16 1    
    14    6   17 1    
    15    8    9 1    
    16    8   18 1    
    17    8   19 1    
    18    9   10 1    
    19    9   20 1    
    20    9   21 1    
    21   10   22 1    
    22   10   23 1    
    23   10   24 1    
@<TRIPOS>SUBSTRUCTURE
     1 UNK         1 GROUP             0       ****    0 ROOT    
