@<TRIPOS>MOLECULE
title: molecule 1
11   10    1
SMALL
USER_CHARGES


@<TRIPOS>ATOM
      1 O1          1.1831   -0.1024   -0.8437 O.2       1 UNK        -0.4400 
      2 C2          1.1813   -1.1346   -0.1718 C.2       1 UNK         0.5200 
      3 O3          0.0579   -1.7220    0.3301 O.3       1 UNK        -0.5300 
      4 C4          2.4263   -1.9622    0.1938 C.3       1 UNK        -0.1200 
      5 C5          3.6799   -1.1193   -0.0725 C.2       1 UNK         0.5200 
      6 O6          3.8927   -0.1955    0.9095 O.3       1 UNK        -0.5300 
      7 O7          4.4034   -1.2831   -1.0525 O.2       1 UNK        -0.4400 
      8 H8         -0.7246   -1.2401    0.1109 H         1 UNK         0.4500 
      9 H9          2.3913   -2.2571    1.2434 H         1 UNK         0.0600 
     10 H10         2.4530   -2.8710   -0.4080 H         1 UNK         0.0600 
     11 H11         4.6657    0.3234    0.7490 H         1 UNK         0.4500 
@<TRIPOS>BOND
     1    1    2 2    
     2    2    3 1    
     3    2    4 1    
     4    3    8 1    
     5    4    5 1    
     6    4    9 1    
     7    4   10 1    
     8    5    6 1    
     9    5    7 2    
    10    6   11 1    
@<TRIPOS>SUBSTRUCTURE
     1 UNK         1 GROUP             0       ****    0 ROOT    
