@<TRIPOS>MOLECULE
title: molecule 1
17   16    1
SMALL
USER_CHARGES


@<TRIPOS>ATOM
      1 C1         -0.1369    0.2916    0.0151 C.3       1 UNK        -0.1800 
      2 C2          1.0600   -0.6104    0.2912 C.2       1 UNK         0.4700 
      3 C3          2.3887    0.0327    0.2965 C.2       1 UNK        -0.1150 
      4 O4          0.8572   -1.7987    0.5352 O.2       1 UNK        -0.4700 
      5 C5          3.5791   -0.5852    0.1180 C.2       1 UNK         0.0000 
      6 C6          4.8731    0.2021    0.2062 C.3       1 UNK        -0.1800 
      7 C7          3.7917   -2.0662   -0.1667 C.3       1 UNK        -0.1800 
      8 H8         -1.0406   -0.3016   -0.1264 H         1 UNK         0.0600 
      9 H9         -0.2979    0.9721    0.8513 H         1 UNK         0.0600 
     10 H10         0.0321    0.8817   -0.8858 H         1 UNK         0.0600 
     11 H11         2.3866    1.0990    0.4702 H         1 UNK         0.1150 
     12 H12         5.5100   -0.2066    0.9912 H         1 UNK         0.0600 
     13 H13         5.4156    0.1478   -0.7381 H         1 UNK         0.0600 
     14 H14         4.6937    1.2540    0.4312 H         1 UNK         0.0600 
     15 H15         4.5788   -2.1926   -0.9106 H         1 UNK         0.0600 
     16 H16         4.1030   -2.5819    0.7418 H         1 UNK         0.0600 
     17 H17         2.9101   -2.5648   -0.5642 H         1 UNK         0.0600 
@<TRIPOS>BOND
     1    1    2 1    
     2    1    8 1    
     3    1    9 1    
     4    1   10 1    
     5    2    3 1    
     6    2    4 2    
     7    3    5 2    
     8    3   11 1    
     9    5    6 1    
    10    5    7 1    
    11    6   12 1    
    12    6   13 1    
    13    6   14 1    
    14    7   15 1    
    15    7   16 1    
    16    7   17 1    
@<TRIPOS>SUBSTRUCTURE
     1 UNK         1 GROUP             0       ****    0 ROOT    
