@<TRIPOS>MOLECULE
title: molecule 1
13   12    1
SMALL
USER_CHARGES


@<TRIPOS>ATOM
      1 Cl1         3.3251   -0.5405    0.1047 Cl        1 UNK        -0.2000 
      2 C2          1.9915    0.6411    0.0954 C.3       1 UNK        -0.0060 
      3 C3          0.6399   -0.0829    0.0993 C.3       1 UNK        -0.1200 
      4 C4         -0.5460    0.8937    0.0915 C.3       1 UNK        -0.1200 
      5 C5         -1.8555    0.2214    0.0950 C.1       1 UNK         0.0100 
      6 C6         -2.9366   -0.3463    0.0980 C.1       1 UNK        -0.2100 
      7 H7          2.1063    1.2643   -0.7919 H         1 UNK         0.1030 
      8 H8          2.1048    1.2766    0.9741 H         1 UNK         0.1030 
      9 H9          0.5824   -0.7393   -0.7705 H         1 UNK         0.0600 
     10 H10         0.5809   -0.7271    0.9780 H         1 UNK         0.0600 
     11 H11        -0.5074    1.5459    0.9644 H         1 UNK         0.0600 
     12 H12        -0.5059    1.5337   -0.7905 H         1 UNK         0.0600 
     13 H13        -3.8798   -0.8451    0.1007 H         1 UNK         0.2000 
@<TRIPOS>BOND
     1    1    2 1    
     2    2    3 1    
     3    2    7 1    
     4    2    8 1    
     5    3    4 1    
     6    3    9 1    
     7    3   10 1    
     8    4    5 1    
     9    4   11 1    
    10    4   12 1    
    11    5    6 3    
    12    6   13 1    
@<TRIPOS>SUBSTRUCTURE
     1 UNK         1 GROUP             0       ****    0 ROOT    
