@<TRIPOS>MOLECULE
title: molecule 1
12   12    1
SMALL
USER_CHARGES


@<TRIPOS>ATOM
      1 S1          1.4417    4.1004    0.2719 S.3       1 UNK         0.0328 
      2 C2          2.2131    2.5447    0.2958 C.2       1 UNK         0.1363 
      3 C3         -0.0977    3.3278   -0.0069 C.2       1 UNK        -0.3255 
      4 Br4         4.0898    2.3733    0.5693 Br        1 UNK        -0.2000 
      5 C5          1.3569    1.4925    0.1035 C.2       1 UNK        -0.0677 
      6 C6          0.0171    1.9603   -0.0712 C.2       1 UNK        -0.0738 
      7 C7          1.7656    0.0517    0.0794 C.3       1 UNK        -0.0650 
      8 H8         -0.9913    3.9262   -0.1064 H         1 UNK         0.2618 
      9 H9         -0.8101    1.2855   -0.2365 H         1 UNK         0.1211 
     10 H10         2.4881   -0.1388   -0.7146 H         1 UNK         0.0600 
     11 H11         2.2253   -0.2425    1.0231 H         1 UNK         0.0600 
     12 H12         0.9115   -0.6045   -0.0889 H         1 UNK         0.0600 
@<TRIPOS>BOND
     1    1    2 1    
     2    1    3 1    
     3    2    4 1    
     4    2    5 2    
     5    3    6 2    
     6    3    8 1    
     7    5    7 1    
     8    5    6 1    
     9    6    9 1    
    10    7   10 1    
    11    7   11 1    
    12    7   12 1    
@<TRIPOS>SUBSTRUCTURE
     1 UNK         1 GROUP             0       ****    0 ROOT    
