@<TRIPOS>MOLECULE
title: molecule 1
23   22    1
SMALL
USER_CHARGES


@<TRIPOS>ATOM
      1 C1          3.7668    0.1444    0.3523 C.3       1 UNK        -0.1200 
      2 C2          2.3201    0.1538   -0.1371 C.2       1 UNK         0.5100 
      3 C3          4.5776    1.3280   -0.1995 C.3       1 UNK        -0.1200 
      4 O4          1.6149    1.1896    0.3468 O.3       1 UNK        -0.3300 
      5 O5          1.8928   -0.7215   -0.8901 O.2       1 UNK        -0.4300 
      6 C6          6.0398    1.2950    0.2648 C.3       1 UNK        -0.0095 
      7 C7          0.2528    1.3403   -0.0168 C.3       1 UNK         0.1900 
      8 C8          6.8563    2.4718   -0.2811 C.3       1 UNK        -0.1994 
      9 C9         -0.3122    2.5975    0.6487 C.3       1 UNK        -0.1800 
     10 Br10        8.7315    2.3428    0.3734 Br        1 UNK        -0.2039 
     11 H11         4.2305   -0.7964    0.0540 H         1 UNK         0.0600 
     12 H12         3.7666    0.1648    1.4424 H         1 UNK         0.0600 
     13 H13         4.5441    1.3179   -1.2900 H         1 UNK         0.0600 
     14 H14         4.1220    2.2680    0.1156 H         1 UNK         0.0600 
     15 H15         6.0763    1.3060    1.3548 H         1 UNK         0.0600 
     16 H16         6.5017    0.3588   -0.0512 H         1 UNK         0.0600 
     17 H17         0.1650    1.4193   -1.1013 H         1 UNK         0.0300 
     18 H18        -0.3138    0.4626    0.2972 H         1 UNK         0.0300 
     19 H19         6.8822    2.4702   -1.3712 H         1 UNK         0.1464 
     20 H20         6.4519    3.4285    0.0508 H         1 UNK         0.1464 
     21 H21        -1.3605    2.7376    0.3850 H         1 UNK         0.0600 
     22 H22        -0.2469    2.5293    1.7349 H         1 UNK         0.0600 
     23 H23         0.2337    3.4871    0.3336 H         1 UNK         0.0600 
@<TRIPOS>BOND
     1    1    2 1    
     2    1    3 1    
     3    1   11 1    
     4    1   12 1    
     5    2    4 1    
     6    2    5 2    
     7    3    6 1    
     8    3   13 1    
     9    3   14 1    
    10    4    7 1    
    11    6    8 1    
    12    6   15 1    
    13    6   16 1    
    14    7    9 1    
    15    7   17 1    
    16    7   18 1    
    17    8   10 1    
    18    8   19 1    
    19    8   20 1    
    20    9   21 1    
    21    9   22 1    
    22    9   23 1    
@<TRIPOS>SUBSTRUCTURE
     1 UNK         1 GROUP             0       ****    0 ROOT    
