@<TRIPOS>MOLECULE
title: molecule 1
25   26    1
SMALL
USER_CHARGES


@<TRIPOS>ATOM
      1 O1         -4.8223   -0.6484    0.5902 O.3       1 UNK        -0.6830 
      2 C2         -3.4658   -0.3567    0.8492 C.3       1 UNK         0.1450 
      3 C3         -2.7594    0.0317   -0.4563 C.3       1 UNK        -0.0050 
      4 C4         -1.2937    0.3567   -0.2383 C.ar      1 UNK        -0.1150 
      5 C5         -0.3235   -0.6644   -0.3150 C.ar      1 UNK        -0.1150 
      6 C6         -0.8968    1.6797    0.0472 C.ar      1 UNK        -0.1150 
      7 C7          1.0391   -0.3658   -0.1086 C.ar      1 UNK         0.0000 
      8 C8          0.4627    1.9836    0.2539 C.ar      1 UNK        -0.1150 
      9 C9          1.4345    0.9651    0.1771 C.ar      1 UNK         0.0000 
     10 C10         2.0108   -1.3853   -0.1848 C.ar      1 UNK        -0.1150 
     11 C11         2.7974    1.2635    0.3835 C.ar      1 UNK        -0.1150 
     12 C12         3.3704   -1.0813    0.0222 C.ar      1 UNK        -0.1150 
     13 C13         3.7632    0.2412    0.3060 C.ar      1 UNK        -0.1150 
     14 H14        -5.2409   -0.8850    1.4040 H         1 UNK         0.4180 
     15 H15        -3.4082    0.4556    1.5745 H         1 UNK         0.0600 
     16 H16        -2.9927   -1.2309    1.2977 H         1 UNK         0.0600 
     17 H17        -2.8401   -0.7796   -1.1811 H         1 UNK         0.0600 
     18 H18        -3.2527    0.8944   -0.9063 H         1 UNK         0.0600 
     19 H19        -0.6276   -1.6785   -0.5313 H         1 UNK         0.1150 
     20 H20        -1.6348    2.4661    0.1098 H         1 UNK         0.1150 
     21 H21         0.7545    3.0008    0.4719 H         1 UNK         0.1150 
     22 H22         1.7187   -2.4025   -0.4020 H         1 UNK         0.1150 
     23 H23         3.1076    2.2751    0.6018 H         1 UNK         0.1150 
     24 H24         4.1129   -1.8635   -0.0367 H         1 UNK         0.1150 
     25 H25         4.8064    0.4718    0.4644 H         1 UNK         0.1150 
@<TRIPOS>BOND
     1    1    2 1    
     2    1   14 1    
     3    2    3 1    
     4    2   15 1    
     5    2   16 1    
     6    3    4 1    
     7    3   17 1    
     8    3   18 1    
     9    4    5 ar   
    10    4    6 ar   
    11    5    7 ar   
    12    5   19 1    
    13    6    8 ar   
    14    6   20 1    
    15    7    9 ar   
    16    7   10 ar   
    17    8    9 ar   
    18    8   21 1    
    19    9   11 ar   
    20   10   12 ar   
    21   10   22 1    
    22   11   13 ar   
    23   11   23 1    
    24   12   13 ar   
    25   12   24 1    
    26   13   25 1    
@<TRIPOS>SUBSTRUCTURE
     1 UNK         1 GROUP             0       ****    0 ROOT    
