@<TRIPOS>MOLECULE
title: molecule 1
17   17    1
SMALL
USER_CHARGES


@<TRIPOS>ATOM
      1 C1         -0.0109    0.1987    0.1342 C.3       1 UNK         0.1100 
      2 O2          0.7094   -1.0252    0.1368 O.3       1 UNK        -0.2850 
      3 C3          2.0863   -0.9679    0.1102 C.ar      1 UNK         0.0850 
      4 C4          2.7785   -2.1966    0.1134 C.ar      1 UNK        -0.1150 
      5 C5          2.8337    0.2369    0.0802 C.ar      1 UNK        -0.1150 
      6 C6          4.1860   -2.2320    0.0874 C.ar      1 UNK        -0.1150 
      7 C7          4.2419    0.2027    0.0541 C.ar      1 UNK        -0.1150 
      8 C8          4.9196   -1.0314    0.0577 C.ar      1 UNK         0.1500 
      9 O9          6.2833   -1.0663    0.0325 O.3       1 UNK        -0.5850 
     10 H10        -1.0797   -0.0131    0.1571 H         1 UNK         0.0300 
     11 H11         0.2243    0.8018    1.0122 H         1 UNK         0.0300 
     12 H12         0.1908    0.7782   -0.7677 H         1 UNK         0.0300 
     13 H13         2.2234   -3.1229    0.1361 H         1 UNK         0.1150 
     14 H14         2.3500    1.2018    0.0765 H         1 UNK         0.1150 
     15 H15         4.7007   -3.1817    0.0903 H         1 UNK         0.1150 
     16 H16         4.7978    1.1285    0.0314 H         1 UNK         0.1150 
     17 H17         6.6777   -0.2080    0.0138 H         1 UNK         0.4350 
@<TRIPOS>BOND
     1    1    2 1    
     2    1   10 1    
     3    1   11 1    
     4    1   12 1    
     5    2    3 1    
     6    3    4 ar   
     7    3    5 ar   
     8    4    6 ar   
     9    4   13 1    
    10    5    7 ar   
    11    5   14 1    
    12    6    8 ar   
    13    6   15 1    
    14    7    8 ar   
    15    7   16 1    
    16    8    9 1    
    17    9   17 1    
@<TRIPOS>SUBSTRUCTURE
     1 UNK         1 GROUP             0       ****    0 ROOT    
