@<TRIPOS>MOLECULE
title: molecule 1
12   11    1
SMALL
USER_CHARGES


@<TRIPOS>ATOM
      1 Br1         0.6028   -1.6147   -0.8563 Br        1 UNK        -0.2039 
      2 C2         -0.0857    0.1866   -0.3381 C.3       1 UNK         0.0575 
      3 C3         -1.1940    0.0085    0.7155 C.3       1 UNK        -0.0889 
      4 C4          1.0453    1.1081    0.1407 C.2       1 UNK         0.5000 
      5 Br5        -2.7221   -1.0064   -0.0610 Br        1 UNK        -0.2039 
      6 O6          0.8580    1.9320    1.0335 O.2       1 UNK        -0.5000 
      7 N7          2.2293    0.9898   -0.4642 N.am      1 UNK        -0.7600 
      8 H8         -0.5127    0.6320   -1.2371 H         1 UNK         0.1464 
      9 H9         -0.8335   -0.5396    1.5865 H         1 UNK         0.1464 
     10 H10        -1.5863    0.9672    1.0573 H         1 UNK         0.1464 
     11 H11         2.9952    1.5834   -0.1811 H         1 UNK         0.3800 
     12 H12         2.3576    0.3002   -1.1908 H         1 UNK         0.3800 
@<TRIPOS>BOND
     1    1    2 1    
     2    2    3 1    
     3    2    4 1    
     4    2    8 1    
     5    3    5 1    
     6    3    9 1    
     7    3   10 1    
     8    4    6 2    
     9    4    7 am   BACKBONE|DICT|INTERRES
    10    7   11 1    
    11    7   12 1    
@<TRIPOS>SUBSTRUCTURE
     1 UNK         1 GROUP             0       ****    0 ROOT    
