@<TRIPOS>MOLECULE
title: molecule 1
26   27    1
SMALL
USER_CHARGES


@<TRIPOS>ATOM
      1 O1         -4.1375    0.4276    0.0361 O.3       1 UNK        -0.5850 
      2 C2         -2.7855    0.2469    0.0719 C.ar      1 UNK         0.1500 
      3 C3         -2.2538   -1.0422    0.2674 C.ar      1 UNK        -0.1150 
      4 C4         -1.9196    1.3463   -0.0861 C.ar      1 UNK        -0.1150 
      5 C5         -0.8587   -1.2321    0.3048 C.ar      1 UNK        -0.1150 
      6 C6         -0.5245    1.1559   -0.0485 C.ar      1 UNK        -0.1150 
      7 C7          0.0158   -0.1350    0.1472 C.ar      1 UNK        -0.1150 
      8 C8          1.5230   -0.3570    0.1902 C.3       1 UNK         0.0550 
      9 C9          2.2625    0.0611   -1.0842 C.3       1 UNK        -0.1200 
     10 C10         2.2468    0.4156    1.2971 C.3       1 UNK        -0.1200 
     11 C11         3.7277    0.2056   -0.6564 C.3       1 UNK        -0.1200 
     12 C12         3.7176    0.4326    0.8646 C.3       1 UNK        -0.1200 
     13 H13        -4.3888    1.3282   -0.0997 H         1 UNK         0.4350 
     14 H14        -2.9150   -1.8878    0.3889 H         1 UNK         0.1150 
     15 H15        -2.3197    2.3383   -0.2364 H         1 UNK         0.1150 
     16 H16        -0.4643   -2.2263    0.4555 H         1 UNK         0.1150 
     17 H17         0.1277    2.0079   -0.1711 H         1 UNK         0.1150 
     18 H18         1.7140   -1.4197    0.3497 H         1 UNK         0.0600 
     19 H19         1.9051    1.0310   -1.4314 H         1 UNK         0.0600 
     20 H20         2.1265   -0.6484   -1.9010 H         1 UNK         0.0600 
     21 H21         2.0991   -0.0258    2.2833 H         1 UNK         0.0600 
     22 H22         1.8865    1.4438    1.3423 H         1 UNK         0.0600 
     23 H23         4.2176    1.0225   -1.1873 H         1 UNK         0.0600 
     24 H24         4.2773   -0.7076   -0.8879 H         1 UNK         0.0600 
     25 H25         4.2630   -0.3718    1.3596 H         1 UNK         0.0600 
     26 H26         4.2016    1.3702    1.1401 H         1 UNK         0.0600 
@<TRIPOS>BOND
     1    1    2 1    
     2    1   13 1    
     3    2    3 ar   
     4    2    4 ar   
     5    3    5 ar   
     6    3   14 1    
     7    4    6 ar   
     8    4   15 1    
     9    5    7 ar   
    10    5   16 1    
    11    6    7 ar   
    12    6   17 1    
    13    7    8 1    
    14    8    9 1    
    15    8   10 1    
    16    8   18 1    
    17    9   11 1    
    18    9   19 1    
    19    9   20 1    
    20   10   12 1    
    21   10   21 1    
    22   10   22 1    
    23   11   12 1    
    24   11   23 1    
    25   11   24 1    
    26   12   25 1    
    27   12   26 1    
@<TRIPOS>SUBSTRUCTURE
     1 UNK         1 GROUP             0       ****    0 ROOT    
