@<TRIPOS>MOLECULE
title: molecule 1
21   20    1
SMALL
USER_CHARGES


@<TRIPOS>ATOM
      1 C1          1.3654    0.7361   -0.1534 C.2       1 UNK         0.5100 
      2 C2          0.1277   -0.0872   -0.0731 C.2       1 UNK         0.0000 
      3 O3          1.3859    1.9145   -0.5173 O.2       1 UNK        -0.4300 
      4 O4          2.4701    0.0547    0.2144 O.3       1 UNK        -0.3300 
      5 C5         -1.0369    0.4599   -0.4910 C.2       1 UNK        -0.1150 
      6 C6          0.2726   -1.5030    0.4818 C.3       1 UNK        -0.1800 
      7 C7          3.7344    0.6955    0.1942 C.3       1 UNK         0.1600 
      8 C8         -2.4080   -0.1932   -0.5263 C.3       1 UNK        -0.1200 
      9 C9         -3.3498    0.4032    0.5243 C.3       1 UNK        -0.1800 
     10 H10        -1.0441    1.4790   -0.8520 H         1 UNK         0.1150 
     11 H11        -0.6807   -1.9858    0.6821 H         1 UNK         0.0600 
     12 H12         0.8249   -2.1295   -0.2193 H         1 UNK         0.0600 
     13 H13         0.8127   -1.4919    1.4294 H         1 UNK         0.0600 
     14 H14         4.5075   -0.0004    0.5198 H         1 UNK         0.0300 
     15 H15         3.9830    1.0339   -0.8124 H         1 UNK         0.0300 
     16 H16         3.7456    1.5552    0.8653 H         1 UNK         0.0300 
     17 H17        -2.8257   -0.0330   -1.5206 H         1 UNK         0.0600 
     18 H18        -2.3509   -1.2725   -0.4041 H         1 UNK         0.0600 
     19 H19        -4.3375   -0.0544    0.4650 H         1 UNK         0.0600 
     20 H20        -2.9672    0.2394    1.5322 H         1 UNK         0.0600 
     21 H21        -3.4718    1.4774    0.3816 H         1 UNK         0.0600 
@<TRIPOS>BOND
     1    1    2 1    
     2    1    3 2    
     3    1    4 1    
     4    2    5 2    
     5    2    6 1    
     6    4    7 1    
     7    5    8 1    
     8    5   10 1    
     9    6   11 1    
    10    6   12 1    
    11    6   13 1    
    12    7   14 1    
    13    7   15 1    
    14    7   16 1    
    15    8    9 1    
    16    8   17 1    
    17    8   18 1    
    18    9   19 1    
    19    9   20 1    
    20    9   21 1    
@<TRIPOS>SUBSTRUCTURE
     1 UNK         1 GROUP             0       ****    0 ROOT    
