@<TRIPOS>MOLECULE
title: molecule 1
14   13    1
SMALL
USER_CHARGES


@<TRIPOS>ATOM
      1 O1          3.8114   -0.4475   -0.2066 O.2       1 UNK        -0.4500 
      2 C2          2.8825   -1.1299    0.2199 C.2       1 UNK         0.4500 
      3 C3          1.4733   -0.8028   -0.0162 C.2       1 UNK        -0.1150 
      4 C4          0.4954   -1.5836    0.4733 C.2       1 UNK        -0.1150 
      5 C5         -0.9834   -1.3205    0.2783 C.3       1 UNK        -0.1200 
      6 C6         -1.6853   -2.4859   -0.4263 C.3       1 UNK        -0.1800 
      7 H7          3.0597   -2.0312    0.8074 H         1 UNK         0.0000 
      8 H8          1.2442    0.0810   -0.5937 H         1 UNK         0.1150 
      9 H9          0.7420   -2.4643    1.0501 H         1 UNK         0.1150 
     10 H10        -1.4360   -1.1527    1.2559 H         1 UNK         0.0600 
     11 H11        -1.1235   -0.4032   -0.2951 H         1 UNK         0.0600 
     12 H12        -2.7484   -2.2798   -0.5518 H         1 UNK         0.0600 
     13 H13        -1.2615   -2.6602   -1.4158 H         1 UNK         0.0600 
     14 H14        -1.5912   -3.4087    0.1469 H         1 UNK         0.0600 
@<TRIPOS>BOND
     1    1    2 2    
     2    2    3 1    
     3    2    7 1    
     4    3    4 2    
     5    3    8 1    
     6    4    5 1    
     7    4    9 1    
     8    5    6 1    
     9    5   10 1    
    10    5   11 1    
    11    6   12 1    
    12    6   13 1    
    13    6   14 1    
@<TRIPOS>SUBSTRUCTURE
     1 UNK         1 GROUP             0       ****    0 ROOT    
