@<TRIPOS>MOLECULE
title: molecule 1
15   14    1
SMALL
USER_CHARGES


@<TRIPOS>ATOM
      1 C1          1.0927    3.1546    0.9044 C.3       1 UNK        -0.1800 
      2 C2          1.3913    2.1857    2.0567 C.3       1 UNK        -0.1200 
      3 C3          2.7459    1.4688    1.9168 C.3       1 UNK         0.2050 
      4 C4          2.9440    0.3887    2.9882 C.3       1 UNK        -0.1800 
      5 O5          3.7927    2.4100    2.0393 O.3       1 UNK        -0.6830 
      6 H6          0.1137    3.6170    1.0311 H         1 UNK         0.0600 
      7 H7          1.8320    3.9545    0.8561 H         1 UNK         0.0600 
      8 H8          1.0943    2.6376   -0.0555 H         1 UNK         0.0600 
      9 H9          1.3494    2.7213    3.0061 H         1 UNK         0.0600 
     10 H10         0.5953    1.4411    2.0934 H         1 UNK         0.0600 
     11 H11         2.8134    1.0065    0.9312 H         1 UNK         0.0600 
     12 H12         3.9062   -0.1111    2.8722 H         1 UNK         0.0600 
     13 H13         2.9071    0.8131    3.9923 H         1 UNK         0.0600 
     14 H14         2.1681   -0.3745    2.9220 H         1 UNK         0.0600 
     15 H15         4.6159    1.9642    1.9101 H         1 UNK         0.4180 
@<TRIPOS>BOND
     1    1    2 1    
     2    1    6 1    
     3    1    7 1    
     4    1    8 1    
     5    2    3 1    
     6    2    9 1    
     7    2   10 1    
     8    3    4 1    
     9    3    5 1    
    10    3   11 1    
    11    4   12 1    
    12    4   13 1    
    13    4   14 1    
    14    5   15 1    
@<TRIPOS>SUBSTRUCTURE
     1 UNK         1 GROUP             0       ****    0 ROOT    
