@<TRIPOS>MOLECULE
title: molecule 1
20   19    1
SMALL
USER_CHARGES


@<TRIPOS>ATOM
      1 C1          1.9818    5.3233   -0.3882 C.3       1 UNK        -0.1800 
      2 C2          1.3868    3.9137   -0.2741 C.3       1 UNK        -0.0095 
      3 C3          2.4492    2.8171   -0.0722 C.3       1 UNK        -0.0530 
      4 C4          1.8781    1.3882   -0.1992 C.3       1 UNK        -0.0530 
      5 Br5         3.3145    3.0519    1.7114 Br        1 UNK        -0.2039 
      6 C6          2.9649    0.2974   -0.1715 C.3       1 UNK        -0.0095 
      7 Br7         0.5580    1.0470    1.2590 Br        1 UNK        -0.2039 
      8 C8          2.4369   -1.0965   -0.5351 C.3       1 UNK        -0.1800 
      9 H9          1.1978    6.0596   -0.5660 H         1 UNK         0.0600 
     10 H10         2.5034    5.6133    0.5239 H         1 UNK         0.0600 
     11 H11         2.6898    5.3873   -1.2148 H         1 UNK         0.0600 
     12 H12         0.6630    3.8901    0.5408 H         1 UNK         0.0600 
     13 H13         0.8264    3.7065   -1.1863 H         1 UNK         0.0600 
     14 H14         3.2321    2.9492   -0.8200 H         1 UNK         0.1464 
     15 H15         1.3320    1.3116   -1.1403 H         1 UNK         0.1464 
     16 H16         3.7526    0.5577   -0.8793 H         1 UNK         0.0600 
     17 H17         3.4366    0.2620    0.8107 H         1 UNK         0.0600 
     18 H18         3.2462   -1.8270   -0.5376 H         1 UNK         0.0600 
     19 H19         1.6874   -1.4399    0.1779 H         1 UNK         0.0600 
     20 H20         1.9840   -1.1008   -1.5268 H         1 UNK         0.0600 
@<TRIPOS>BOND
     1    1    2 1    
     2    1    9 1    
     3    1   10 1    
     4    1   11 1    
     5    2    3 1    
     6    2   12 1    
     7    2   13 1    
     8    3    4 1    
     9    3    5 1    
    10    3   14 1    
    11    4    6 1    
    12    4    7 1    
    13    4   15 1    
    14    6    8 1    
    15    6   16 1    
    16    6   17 1    
    17    8   18 1    
    18    8   19 1    
    19    8   20 1    
@<TRIPOS>SUBSTRUCTURE
     1 UNK         1 GROUP             0       ****    0 ROOT    
