@<TRIPOS>MOLECULE
title: molecule 1
12   12    1
SMALL
USER_CHARGES


@<TRIPOS>ATOM
      1 N1          2.3539   -2.5573    0.0893 N.ar      1 UNK        -0.6780 
      2 C2          1.2047   -1.8491    0.1072 C.ar      1 UNK         0.6171 
      3 C3          3.5272   -1.8882    0.0718 C.ar      1 UNK         0.6650 
      4 O4          0.0262   -2.5342    0.1248 O.3       1 UNK        -0.5671 
      5 C5          1.1782   -0.4398    0.1083 C.ar      1 UNK        -0.4470 
      6 C6          3.5997   -0.4806    0.0714 C.ar      1 UNK        -0.4470 
      7 Cl7         4.9920   -2.7989    0.0490 Cl        1 UNK        -0.1800 
      8 C8          2.4012    0.2565    0.0900 C.ar      1 UNK         0.2270 
      9 H9         -0.7290   -1.9675    0.1366 H         1 UNK         0.4350 
     10 H10         0.2431    0.1008    0.1228 H         1 UNK         0.1550 
     11 H11         4.5550    0.0230    0.0571 H         1 UNK         0.1550 
     12 H12         2.4196    1.3364    0.0903 H         1 UNK         0.0650 
@<TRIPOS>BOND
     1    1    2 ar   
     2    1    3 ar   
     3    2    4 1    
     4    2    5 ar   
     5    3    6 ar   
     6    3    7 1    
     7    4    9 1    
     8    5    8 ar   
     9    5   10 1    
    10    6    8 ar   
    11    6   11 1    
    12    8   12 1    
@<TRIPOS>SUBSTRUCTURE
     1 UNK         1 GROUP             0       ****    0 ROOT    
