@<TRIPOS>MOLECULE
title: molecule 1
24   23    1
SMALL
USER_CHARGES


@<TRIPOS>ATOM
      1 O1          0.6412   -0.3186    0.0816 O.3       1 UNK        -0.3300 
      2 C2         -0.4908    0.5351    0.1115 C.3       1 UNK         0.1900 
      3 C3          1.8733    0.2135    0.0881 C.2       1 UNK         0.5100 
      4 C4         -1.7678   -0.3128    0.0968 C.3       1 UNK        -0.1200 
      5 O5          2.1363    1.4167    0.1187 O.2       1 UNK        -0.4300 
      6 C6          2.9608   -0.8580    0.0527 C.3       1 UNK        -0.0200 
      7 C7         -3.0389    0.5471    0.1278 C.3       1 UNK        -0.1200 
      8 C8          4.3218   -0.2975    0.0592 C.1       1 UNK         0.4600 
      9 C9         -4.3224   -0.2957    0.1133 C.3       1 UNK        -0.1200 
     10 N10         5.3931    0.1407    0.0642 N.1       1 UNK        -0.5600 
     11 C11        -5.5911    0.5635    0.1442 C.3       1 UNK        -0.1800 
     12 H12        -0.4615    1.1554    1.0086 H         1 UNK         0.0300 
     13 H13        -0.4725    1.2024   -0.7515 H         1 UNK         0.0300 
     14 H14        -1.7741   -0.9414   -0.7944 H         1 UNK         0.0600 
     15 H15        -1.7632   -0.9881    0.9533 H         1 UNK         0.0600 
     16 H16         2.8556   -1.5137    0.9170 H         1 UNK         0.0600 
     17 H17         2.8446   -1.4666   -0.8440 H         1 UNK         0.0600 
     18 H18        -3.0285    1.1767    1.0185 H         1 UNK         0.0600 
     19 H19        -3.0394    1.2234   -0.7281 H         1 UNK         0.0600 
     20 H20        -4.3373   -0.9252   -0.7772 H         1 UNK         0.0600 
     21 H21        -4.3263   -0.9718    0.9690 H         1 UNK         0.0600 
     22 H22        -6.4841   -0.0618    0.1330 H         1 UNK         0.0600 
     23 H23        -5.6280    1.1797    1.0430 H         1 UNK         0.0600 
     24 H24        -5.6390    1.2268   -0.7199 H         1 UNK         0.0600 
@<TRIPOS>BOND
     1    1    2 1    
     2    1    3 1    
     3    2    4 1    
     4    2   12 1    
     5    2   13 1    
     6    3    5 2    
     7    3    6 1    
     8    4    7 1    
     9    4   14 1    
    10    4   15 1    
    11    6    8 1    
    12    6   16 1    
    13    6   17 1    
    14    7    9 1    
    15    7   18 1    
    16    7   19 1    
    17    8   10 3    
    18    9   11 1    
    19    9   20 1    
    20    9   21 1    
    21   11   22 1    
    22   11   23 1    
    23   11   24 1    
@<TRIPOS>SUBSTRUCTURE
     1 UNK         1 GROUP             0       ****    0 ROOT    
