@<TRIPOS>MOLECULE
title: molecule 1
14   14    1
SMALL
USER_CHARGES


@<TRIPOS>ATOM
      1 N1          5.6757   -2.2289    0.0898 N.pl3     1 UNK         0.6500 
      2 O2          6.2295   -3.0159    0.8499 O.co2     1 UNK        -0.3700 
      3 O3          6.2686   -1.4973   -0.6956 O.co2     1 UNK        -0.3700 
      4 C4          4.2045   -2.2018    0.0964 C.ar      1 UNK         0.0900 
      5 C5          3.5027   -3.4254    0.0450 C.ar      1 UNK        -0.1150 
      6 C6          3.4769   -0.9846    0.1593 C.ar      1 UNK         0.1800 
      7 C7          2.0969   -3.4451    0.0388 C.ar      1 UNK        -0.1150 
      8 C8          2.0619   -1.0077    0.1517 C.ar      1 UNK         0.1800 
      9 Cl9         4.2960    0.5379    0.2806 Cl        1 UNK        -0.1800 
     10 C10         1.3742   -2.2398    0.0888 C.ar      1 UNK         0.1800 
     11 Cl11        1.1680    0.4731    0.2266 Cl        1 UNK        -0.1800 
     12 Cl12       -0.3529   -2.2954    0.0779 Cl        1 UNK        -0.1800 
     13 H13         4.0455   -4.3586    0.0017 H         1 UNK         0.1150 
     14 H14         1.5726   -4.3886   -0.0060 H         1 UNK         0.1150 
@<TRIPOS>BOND
     1    1    2 2    
     2    1    3 1    
     3    1    4 1    
     4    4    5 ar   
     5    4    6 ar   
     6    5    7 ar   
     7    5   13 1    
     8    6    8 ar   
     9    6    9 1    
    10    7   10 ar   
    11    7   14 1    
    12    8   10 ar   
    13    8   11 1    
    14   10   12 1    
@<TRIPOS>SUBSTRUCTURE
     1 UNK         1 GROUP             0       ****    0 ROOT    
