@<TRIPOS>MOLECULE
title: molecule 1
16   16    1
SMALL
USER_CHARGES


@<TRIPOS>ATOM
      1 C1          0.7069    2.1770    0.9480 C.ar      1 UNK        -0.1150 
      2 C2          1.7879    1.8454    0.1026 C.ar      1 UNK        -0.0779 
      3 C3         -0.4437    1.3662    0.9864 C.ar      1 UNK        -0.1150 
      4 C4          1.7080    0.6859   -0.7065 C.ar      1 UNK         0.1800 
      5 C5          3.0162    2.7396    0.0837 C.3       1 UNK         0.1972 
      6 C6         -0.5207    0.2161    0.1793 C.ar      1 UNK        -0.1150 
      7 C7          0.5540   -0.1223   -0.6646 C.ar      1 UNK        -0.1150 
      8 Cl8         3.0055    0.2305   -1.7545 Cl        1 UNK        -0.1800 
      9 O9          4.0732    2.2237    0.8640 O.3       1 UNK        -0.6333 
     10 H10         0.7573    3.0563    1.5735 H         1 UNK         0.1150 
     11 H11        -1.2665    1.6266    1.6359 H         1 UNK         0.1150 
     12 H12         3.3600    2.8826   -0.9409 H         1 UNK         0.0480 
     13 H13         2.7586    3.7299    0.4607 H         1 UNK         0.0480 
     14 H14        -1.4025   -0.4069    0.2081 H         1 UNK         0.1150 
     15 H15         0.4927   -1.0067   -1.2816 H         1 UNK         0.1150 
     16 H16         4.8071    2.8164    0.8069 H         1 UNK         0.4180 
@<TRIPOS>BOND
     1    1    2 ar   
     2    1    3 ar   
     3    1   10 1    
     4    2    4 ar   
     5    2    5 1    
     6    3    6 ar   
     7    3   11 1    
     8    4    7 ar   
     9    4    8 1    
    10    5    9 1    
    11    5   12 1    
    12    5   13 1    
    13    6    7 ar   
    14    6   14 1    
    15    7   15 1    
    16    9   16 1    
@<TRIPOS>SUBSTRUCTURE
     1 UNK         1 GROUP             0       ****    0 ROOT    
