@<TRIPOS>MOLECULE
title: molecule 1
18   18    1
SMALL
USER_CHARGES


@<TRIPOS>ATOM
      1 O1         -0.7041    1.0920    1.1228 O.3       1 UNK        -0.6333 
      2 C2         -0.1088    0.7754   -0.1169 C.3       1 UNK         0.1972 
      3 C3          1.4058    0.8188   -0.0618 C.ar      1 UNK        -0.0779 
      4 C4          2.0706    2.0559    0.0730 C.ar      1 UNK        -0.1150 
      5 C5          2.1572   -0.3725   -0.1448 C.ar      1 UNK        -0.1150 
      6 C6          3.4784    2.1032    0.1238 C.ar      1 UNK         0.1800 
      7 C7          3.5640   -0.3258   -0.0944 C.ar      1 UNK        -0.1150 
      8 N8          4.1313    3.3274    0.2573 N.pl3     1 UNK        -0.9000 
      9 C9          4.2247    0.9108    0.0395 C.ar      1 UNK        -0.1150 
     10 H10        -1.6432    1.0514    1.0252 H         1 UNK         0.4180 
     11 H11        -0.4472   -0.2133   -0.4286 H         1 UNK         0.0480 
     12 H12        -0.4600    1.4823   -0.8693 H         1 UNK         0.0480 
     13 H13         1.4951    2.9680    0.1386 H         1 UNK         0.1150 
     14 H14         1.6584   -1.3253   -0.2460 H         1 UNK         0.1150 
     15 H15         4.1367   -1.2392   -0.1580 H         1 UNK         0.1150 
     16 H16         5.1319    3.3747    0.3854 H         1 UNK         0.3600 
     17 H17         3.6139    4.1810    0.4104 H         1 UNK         0.3600 
     18 H18         5.3040    0.9386    0.0775 H         1 UNK         0.1150 
@<TRIPOS>BOND
     1    1    2 1    
     2    1   10 1    
     3    2    3 1    
     4    2   11 1    
     5    2   12 1    
     6    3    4 ar   
     7    3    5 ar   
     8    4    6 ar   
     9    4   13 1    
    10    5    7 ar   
    11    5   14 1    
    12    6    8 1    
    13    6    9 ar   
    14    7    9 ar   
    15    7   15 1    
    16    8   16 1    
    17    8   17 1    
    18    9   18 1    
@<TRIPOS>SUBSTRUCTURE
     1 UNK         1 GROUP             0       ****    0 ROOT    
