@<TRIPOS>MOLECULE
title: molecule 1
15   14    1
SMALL
USER_CHARGES


@<TRIPOS>ATOM
      1 C1         -0.0278    2.4661   -0.9218 C.2       1 UNK        -0.2300 
      2 C2          0.2918    1.4114   -0.1562 C.2       1 UNK        -0.1075 
      3 S3          1.6233    1.4936    1.0660 S.o2      1 UNK         0.9929 
      4 C4          2.7850    0.1810    0.4957 C.3       1 UNK        -0.4339 
      5 O5          2.2762    2.8055    0.9332 O.2       1 UNK        -0.5300 
      6 O6          1.0438    1.0812    2.3531 O.2       1 UNK        -0.5300 
      7 C7          3.5812    0.6285   -0.7357 C.3       1 UNK        -0.0439 
      8 H8         -0.8256    2.4008   -1.6465 H         1 UNK         0.1150 
      9 H9          0.4977    3.4060   -0.8384 H         1 UNK         0.1150 
     10 H10        -0.2176    0.4614   -0.2187 H         1 UNK         0.1150 
     11 H11         3.4675   -0.0340    1.3178 H         1 UNK         0.1787 
     12 H12         2.2134   -0.7254    0.2969 H         1 UNK         0.1787 
     13 H13         4.2585   -0.1588   -1.0669 H         1 UNK         0.0600 
     14 H14         2.9184    0.8692   -1.5672 H         1 UNK         0.0600 
     15 H15         4.1816    1.5123   -0.5188 H         1 UNK         0.0600 
@<TRIPOS>BOND
     1    1    2 2    
     2    1    8 1    
     3    1    9 1    
     4    2    3 1    
     5    2   10 1    
     6    3    4 1    
     7    3    5 2    
     8    3    6 2    
     9    4    7 1    
    10    4   11 1    
    11    4   12 1    
    12    7   13 1    
    13    7   14 1    
    14    7   15 1    
@<TRIPOS>SUBSTRUCTURE
     1 UNK         1 GROUP             0       ****    0 ROOT    
