@<TRIPOS>MOLECULE
title: molecule 1
11   11    1
SMALL
USER_CHARGES


@<TRIPOS>ATOM
      1 O1         -2.8593    0.4168    0.1962 O.2       1 UNK        -0.4500 
      2 C2         -1.9639   -0.4254    0.1687 C.2       1 UNK         0.5650 
      3 C3         -0.5532   -0.0744    0.1211 C.2       1 UNK         0.0080 
      4 C4          0.5600   -0.8745    0.0863 C.2       1 UNK        -0.1540 
      5 O5         -0.1945    1.2440    0.1058 O.3       1 UNK        -0.1900 
      6 C6          1.6884   -0.0075    0.0466 C.2       1 UNK        -0.1540 
      7 C7          1.1617    1.2494    0.0608 C.2       1 UNK         0.3230 
      8 Br8         2.1798    2.8562    0.0229 Br        1 UNK        -0.2000 
      9 H9         -2.1669   -1.4964    0.1782 H         1 UNK         0.0000 
     10 H10         0.5625   -1.9548    0.0890 H         1 UNK         0.1260 
     11 H11         2.7361   -0.2674    0.0126 H         1 UNK         0.1260 
@<TRIPOS>BOND
     1    1    2 2    
     2    2    3 1    
     3    2    9 1    
     4    3    4 2    
     5    3    5 1    
     6    4    6 1    
     7    4   10 1    
     8    5    7 1    
     9    6    7 2    
    10    6   11 1    
    11    7    8 1    
@<TRIPOS>SUBSTRUCTURE
     1 UNK         1 GROUP             0       ****    0 ROOT    
