@<TRIPOS>MOLECULE
title: molecule 1
28   27    1
SMALL
USER_CHARGES


@<TRIPOS>ATOM
      1 C1          1.1808    1.2042    0.7135 C.3       1 UNK         0.2200 
      2 C2         -0.2351    0.6370    0.9001 C.3       1 UNK        -0.1200 
      3 C3          1.5787    2.1490    1.8578 C.3       1 UNK        -0.1800 
      4 O4          2.0999    0.1170    0.6693 O.3       1 UNK        -0.3300 
      5 C5         -0.7075   -0.1840   -0.3115 C.3       1 UNK         0.1900 
      6 C6          3.1936    0.1638   -0.1171 C.2       1 UNK         0.5100 
      7 O7         -2.0123   -0.7067   -0.0971 O.3       1 UNK        -0.3300 
      8 C8          3.9732   -1.0784   -0.0046 C.2       1 UNK        -0.1150 
      9 O9          3.5035    1.1173   -0.8342 O.2       1 UNK        -0.4300 
     10 C10        -3.1033    0.0323   -0.3773 C.2       1 UNK         0.5100 
     11 C11         5.1092   -1.2652   -0.6975 C.2       1 UNK        -0.2300 
     12 C12        -4.3350   -0.7143   -0.0781 C.2       1 UNK        -0.1150 
     13 O13        -3.0764    1.1814   -0.8228 O.2       1 UNK        -0.4300 
     14 C14        -5.5515   -0.1794   -0.2768 C.2       1 UNK        -0.2300 
     15 H15         1.1992    1.7604   -0.2251 H         1 UNK         0.0300 
     16 H16        -0.2728    0.0219    1.8000 H         1 UNK         0.0600 
     17 H17        -0.9286    1.4627    1.0633 H         1 UNK         0.0600 
     18 H18         2.5796    2.5532    1.7042 H         1 UNK         0.0600 
     19 H19         0.8914    2.9924    1.9260 H         1 UNK         0.0600 
     20 H20         1.5712    1.6328    2.8183 H         1 UNK         0.0600 
     21 H21        -0.6741    0.4152   -1.2228 H         1 UNK         0.0300 
     22 H22        -0.0329   -1.0254   -0.4702 H         1 UNK         0.0300 
     23 H23         3.6105   -1.8524    0.6566 H         1 UNK         0.1150 
     24 H24         5.6667   -2.1850   -0.6004 H         1 UNK         0.1150 
     25 H25         5.5018   -0.5136   -1.3677 H         1 UNK         0.1150 
     26 H26        -4.2436   -1.7181    0.3114 H         1 UNK         0.1150 
     27 H27        -6.4436   -0.7445   -0.0505 H         1 UNK         0.1150 
     28 H28        -5.6813    0.8211   -0.6647 H         1 UNK         0.1150 
@<TRIPOS>BOND
     1    1    2 1    
     2    1    3 1    
     3    1    4 1    
     4    1   15 1    
     5    2    5 1    
     6    2   16 1    
     7    2   17 1    
     8    3   18 1    
     9    3   19 1    
    10    3   20 1    
    11    4    6 1    
    12    5    7 1    
    13    5   21 1    
    14    5   22 1    
    15    6    8 1    
    16    6    9 2    
    17    7   10 1    
    18    8   11 2    
    19    8   23 1    
    20   10   12 1    
    21   10   13 2    
    22   11   24 1    
    23   11   25 1    
    24   12   14 2    
    25   12   26 1    
    26   14   27 1    
    27   14   28 1    
@<TRIPOS>SUBSTRUCTURE
     1 UNK         1 GROUP             0       ****    0 ROOT    
