@<TRIPOS>MOLECULE
title: molecule 1
16   16    1
SMALL
USER_CHARGES


@<TRIPOS>ATOM
      1 C1          2.7199    3.4723   -0.0879 C.ar      1 UNK         0.1800 
      2 C2          1.4788    2.8173    0.0856 C.ar      1 UNK         0.0900 
      3 C3          3.9202    2.7283   -0.0808 C.ar      1 UNK         0.1800 
      4 Cl4         2.7747    5.1908   -0.2985 Cl        1 UNK        -0.1800 
      5 C5          1.4428    1.4155    0.2672 C.ar      1 UNK         0.1800 
      6 N6          0.2315    3.5903    0.0772 N.pl3     1 UNK         0.6500 
      7 C7          3.8842    1.3266    0.1018 C.ar      1 UNK         0.0900 
      8 Cl8         5.4348    3.5376   -0.3077 Cl        1 UNK        -0.1800 
      9 C9          2.6433    0.6717    0.2762 C.ar      1 UNK         0.1800 
     10 Cl10       -0.0737    0.6028    0.4680 Cl        1 UNK        -0.1800 
     11 O11        -0.1564    4.0294   -0.9996 O.co2     1 UNK        -0.3700 
     12 O12        -0.3448    3.7487    1.1475 O.co2     1 UNK        -0.3700 
     13 N13         5.1316    0.5536    0.1102 N.pl3     1 UNK         0.6500 
     14 Cl14        2.5903   -1.0435    0.5130 Cl        1 UNK        -0.1800 
     15 O15         5.8569    0.6580    1.0929 O.co2     1 UNK        -0.3700 
     16 O16         5.3704   -0.1484   -0.8660 O.co2     1 UNK        -0.3700 
@<TRIPOS>BOND
     1    1    2 ar   
     2    1    3 ar   
     3    1    4 1    
     4    2    5 ar   
     5    2    6 1    
     6    3    7 ar   
     7    3    8 1    
     8    5    9 ar   
     9    5   10 1    
    10    6   11 2    
    11    6   12 1    
    12    7    9 ar   
    13    7   13 1    
    14    9   14 1    
    15   13   15 2    
    16   13   16 1    
@<TRIPOS>SUBSTRUCTURE
     1 UNK         1 GROUP             0       ****    0 ROOT    
