@<TRIPOS>MOLECULE
title: molecule 1
22   22    1
SMALL
USER_CHARGES


@<TRIPOS>ATOM
      1 C1          3.7817    2.3818    2.1975 C.3       1 UNK         0.1400 
      2 O2          4.8460    1.4992    1.8730 O.3       1 UNK        -0.2850 
      3 C3          2.4758    1.5946    2.2284 C.2       1 UNK         0.5100 
      4 C4          6.1139    2.0308    1.7864 C.ar      1 UNK         0.0850 
      5 O5          2.1913    1.0164    1.0499 O.3       1 UNK        -0.3300 
      6 O6          1.7856    1.5362    3.2466 O.2       1 UNK        -0.4300 
      7 C7          7.1602    1.1440    1.4577 C.ar      1 UNK        -0.1150 
      8 C8          6.4198    3.3980    2.0062 C.ar      1 UNK        -0.1150 
      9 C9          1.0076    0.2490    0.9175 C.3       1 UNK         0.1600 
     10 C10         8.4869    1.6033    1.3482 C.ar      1 UNK        -0.1150 
     11 C11         7.7471    3.8576    1.8967 C.ar      1 UNK        -0.1150 
     12 C12         8.7812    2.9616    1.5678 C.ar      1 UNK        -0.1150 
     13 H13         3.7025    3.1746    1.4528 H         1 UNK         0.0300 
     14 H14         3.9520    2.8398    3.1726 H         1 UNK         0.0300 
     15 H15         6.9422    0.0999    1.2875 H         1 UNK         0.1150 
     16 H16         5.6540    4.1149    2.2604 H         1 UNK         0.1150 
     17 H17         0.9336   -0.1462   -0.0956 H         1 UNK         0.0300 
     18 H18         1.0098   -0.5923    1.6118 H         1 UNK         0.0300 
     19 H19         0.1245    0.8593    1.1104 H         1 UNK         0.0300 
     20 H20         9.2782    0.9129    1.0957 H         1 UNK         0.1150 
     21 H21         7.9717    4.9005    2.0657 H         1 UNK         0.1150 
     22 H22         9.7983    3.3156    1.4843 H         1 UNK         0.1150 
@<TRIPOS>BOND
     1    1    2 1    
     2    1    3 1    
     3    1   13 1    
     4    1   14 1    
     5    2    4 1    
     6    3    5 1    
     7    3    6 2    
     8    4    7 ar   
     9    4    8 ar   
    10    5    9 1    
    11    7   10 ar   
    12    7   15 1    
    13    8   11 ar   
    14    8   16 1    
    15    9   17 1    
    16    9   18 1    
    17    9   19 1    
    18   10   12 ar   
    19   10   20 1    
    20   11   12 ar   
    21   11   21 1    
    22   12   22 1    
@<TRIPOS>SUBSTRUCTURE
     1 UNK         1 GROUP             0       ****    0 ROOT    
