@<TRIPOS>MOLECULE
title: molecule 1
23   22    1
SMALL
USER_CHARGES


@<TRIPOS>ATOM
      1 C1          6.0530    2.2240    1.7962 C.3       1 UNK        -0.1200 
      2 C2          5.1616    3.0773    2.7117 C.3       1 UNK        -0.1200 
      3 C3          7.4845    2.0873    2.3350 C.3       1 UNK        -0.1200 
      4 C4          3.7840    3.2217    2.2138 C.1       1 UNK         0.0000 
      5 C5          8.3793    1.2353    1.4233 C.3       1 UNK        -0.1200 
      6 C6          2.6441    3.3344    1.7902 C.1       1 UNK         0.0000 
      7 C7          9.8079    1.0990    1.9614 C.3       1 UNK        -0.1800 
      8 C8          1.2702    3.4814    1.2879 C.3       1 UNK         0.1450 
      9 O9          1.0771    2.7911    0.0728 O.3       1 UNK        -0.6830 
     10 H10         5.6155    1.2311    1.6802 H         1 UNK         0.0600 
     11 H11         6.0843    2.6662    0.7991 H         1 UNK         0.0600 
     12 H12         5.1082    2.6377    3.7081 H         1 UNK         0.0600 
     13 H13         5.5788    4.0785    2.8234 H         1 UNK         0.0600 
     14 H14         7.9244    3.0787    2.4506 H         1 UNK         0.0600 
     15 H15         7.4559    1.6442    3.3313 H         1 UNK         0.0600 
     16 H16         7.9436    0.2422    1.3070 H         1 UNK         0.0600 
     17 H17         8.4120    1.6764    0.4264 H         1 UNK         0.0600 
     18 H18        10.4179    0.4900    1.2939 H         1 UNK         0.0600 
     19 H19        10.2884    2.0734    2.0545 H         1 UNK         0.0600 
     20 H20         9.8155    0.6255    2.9435 H         1 UNK         0.0600 
     21 H21         0.5816    3.1003    2.0423 H         1 UNK         0.0600 
     22 H22         1.0603    4.5417    1.1465 H         1 UNK         0.0600 
     23 H23         0.3674    2.1769    0.1838 H         1 UNK         0.4180 
@<TRIPOS>BOND
     1    1    2 1    
     2    1    3 1    
     3    1   10 1    
     4    1   11 1    
     5    2    4 1    
     6    2   12 1    
     7    2   13 1    
     8    3    5 1    
     9    3   14 1    
    10    3   15 1    
    11    4    6 3    
    12    5    7 1    
    13    5   16 1    
    14    5   17 1    
    15    6    8 1    
    16    7   18 1    
    17    7   19 1    
    18    7   20 1    
    19    8    9 1    
    20    8   21 1    
    21    8   22 1    
    22    9   23 1    
@<TRIPOS>SUBSTRUCTURE
     1 UNK         1 GROUP             0       ****    0 ROOT    
