@<TRIPOS>MOLECULE
title: molecule 1
21   20    1
SMALL
USER_CHARGES


@<TRIPOS>ATOM
      1 Br1        -1.6364    3.2968    0.1497 Br        1 UNK        -0.2039 
      2 C2          0.3455    3.4792    0.1383 C.3       1 UNK        -0.1994 
      3 C3          0.9891    2.0881    0.1279 C.3       1 UNK        -0.0095 
      4 C4          2.5231    2.1497    0.1188 C.3       1 UNK        -0.1200 
      5 C5          3.1693    0.7566    0.1083 C.3       1 UNK        -0.1200 
      6 C6          4.7028    0.8171    0.0992 C.3       1 UNK        -0.1200 
      7 C7          5.3409   -0.5767    0.0888 C.3       1 UNK        -0.0200 
      8 C8          6.8106   -0.5280    0.0800 C.1       1 UNK         0.4600 
      9 N9          7.9668   -0.4893    0.0730 N.1       1 UNK        -0.5600 
     10 H10         0.6335    4.0476    1.0232 H         1 UNK         0.1464 
     11 H11         0.6227    4.0558   -0.7446 H         1 UNK         0.1464 
     12 H12         0.6513    1.5290    1.0013 H         1 UNK         0.0600 
     13 H13         0.6406    1.5371   -0.7464 H         1 UNK         0.0600 
     14 H14         2.8578    2.7113   -0.7544 H         1 UNK         0.0600 
     15 H15         2.8686    2.7032    0.9929 H         1 UNK         0.0600 
     16 H16         2.8356    0.1943    0.9813 H         1 UNK         0.0600 
     17 H17         2.8248    0.2025   -0.7657 H         1 UNK         0.0600 
     18 H18         5.0420    1.3757   -0.7742 H         1 UNK         0.0600 
     19 H19         5.0527    1.3676    0.9734 H         1 UNK         0.0600 
     20 H20         5.0319   -1.1450    0.9663 H         1 UNK         0.0600 
     21 H21         5.0211   -1.1368   -0.7902 H         1 UNK         0.0600 
@<TRIPOS>BOND
     1    1    2 1    
     2    2    3 1    
     3    2   10 1    
     4    2   11 1    
     5    3    4 1    
     6    3   12 1    
     7    3   13 1    
     8    4    5 1    
     9    4   14 1    
    10    4   15 1    
    11    5    6 1    
    12    5   16 1    
    13    5   17 1    
    14    6    7 1    
    15    6   18 1    
    16    6   19 1    
    17    7    8 1    
    18    7   20 1    
    19    7   21 1    
    20    8    9 3    
@<TRIPOS>SUBSTRUCTURE
     1 UNK         1 GROUP             0       ****    0 ROOT    
