@<TRIPOS>MOLECULE
title: molecule 1
14   13    1
SMALL
USER_CHARGES


@<TRIPOS>ATOM
      1 O1          4.5979   -0.0710   -0.2634 O.3       1 UNK        -0.6830 
      2 C2          3.5314   -0.7660    0.3483 C.3       1 UNK         0.2050 
      3 C3          3.9527   -2.2347    0.5235 C.3       1 UNK        -0.1800 
      4 C4          2.2709   -0.5731   -0.5178 C.3       1 UNK        -0.1200 
      5 C5          1.0461   -1.1772    0.0359 C.1       1 UNK         0.0100 
      6 C6          0.0312   -1.6851    0.4864 C.1       1 UNK        -0.2100 
      7 H7          5.3604   -0.1405    0.2906 H         1 UNK         0.4180 
      8 H8          3.3686   -0.3204    1.3308 H         1 UNK         0.0600 
      9 H9          3.1868   -2.8116    1.0422 H         1 UNK         0.0600 
     10 H10         4.1331   -2.7126   -0.4400 H         1 UNK         0.0600 
     11 H11         4.8684   -2.3134    1.1104 H         1 UNK         0.0600 
     12 H12         2.0685    0.4901   -0.6527 H         1 UNK         0.0600 
     13 H13         2.4245   -0.9935   -1.5124 H         1 UNK         0.0600 
     14 H14        -0.8563   -2.1300    0.8774 H         1 UNK         0.2000 
@<TRIPOS>BOND
     1    1    2 1    
     2    1    7 1    
     3    2    3 1    
     4    2    4 1    
     5    2    8 1    
     6    3    9 1    
     7    3   10 1    
     8    3   11 1    
     9    4    5 1    
    10    4   12 1    
    11    4   13 1    
    12    5    6 3    
    13    6   14 1    
@<TRIPOS>SUBSTRUCTURE
     1 UNK         1 GROUP             0       ****    0 ROOT    
