@<TRIPOS>MOLECULE
title: molecule 1
20   20    1
SMALL
USER_CHARGES


@<TRIPOS>ATOM
      1 C1          3.3222   -3.4290    0.0986 C.ar      1 UNK         0.1500 
      2 O2          4.0023   -4.6153    0.1104 O.3       1 UNK        -0.5850 
      3 C3          1.9139   -3.4928    0.0835 C.ar      1 UNK        -0.1150 
      4 C4          3.9862   -2.1686    0.1010 C.ar      1 UNK        -0.1150 
      5 C5          1.1444   -2.3159    0.0708 C.ar      1 UNK         0.1500 
      6 C6          3.1910   -0.9932    0.0880 C.ar      1 UNK        -0.1150 
      7 C7          5.4844   -2.0631    0.1169 C.2       1 UNK         0.6250 
      8 O8         -0.2183   -2.3843    0.0563 O.3       1 UNK        -0.5850 
      9 C9          1.7855   -1.0658    0.0730 C.ar      1 UNK        -0.1150 
     10 O10         6.2444   -3.0342    0.1288 O.2       1 UNK        -0.4300 
     11 O11         5.9243   -0.7876    0.1169 O.3       1 UNK        -0.3300 
     12 C12         7.3163   -0.5187    0.1310 C.3       1 UNK         0.1600 
     13 H13         4.9416   -4.4947    0.1201 H         1 UNK         0.4350 
     14 H14         1.4239   -4.4557    0.0818 H         1 UNK         0.1150 
     15 H15         3.6395   -0.0107    0.0892 H         1 UNK         0.1150 
     16 H16        -0.5467   -3.2703    0.0560 H         1 UNK         0.4350 
     17 H17         1.2003   -0.1577    0.0633 H         1 UNK         0.1150 
     18 H18         7.4855    0.5580    0.1288 H         1 UNK         0.0300 
     19 H19         7.7840   -0.9349    1.0241 H         1 UNK         0.0300 
     20 H20         7.8032   -0.9415   -0.7487 H         1 UNK         0.0300 
@<TRIPOS>BOND
     1    1    2 1    
     2    1    3 ar   
     3    1    4 ar   
     4    2   13 1    
     5    3    5 ar   
     6    3   14 1    
     7    4    6 ar   
     8    4    7 1    
     9    5    8 1    
    10    5    9 ar   
    11    6    9 ar   
    12    6   15 1    
    13    7   10 2    
    14    7   11 1    
    15    8   16 1    
    16    9   17 1    
    17   11   12 1    
    18   12   18 1    
    19   12   19 1    
    20   12   20 1    
@<TRIPOS>SUBSTRUCTURE
     1 UNK         1 GROUP             0       ****    0 ROOT    
