@<TRIPOS>MOLECULE
title: molecule 1
32   31    1
SMALL
USER_CHARGES


@<TRIPOS>ATOM
      1 C1          3.7664    2.6772    0.9079 C.2       1 UNK         0.5100 
      2 C2          4.6880    3.9057    0.9047 C.3       1 UNK        -0.0600 
      3 O3          3.2177    2.4159    2.1146 O.3       1 UNK        -0.3300 
      4 O4          3.5693    2.0314   -0.1220 O.2       1 UNK        -0.4300 
      5 C5          3.8291    5.1776    0.9898 C.2       1 UNK         0.5100 
      6 C6          5.7834    3.8225    1.9948 C.3       1 UNK        -0.1200 
      7 C7          2.2972    1.3459    2.2733 C.3       1 UNK         0.1900 
      8 O8          3.2778    5.3790    2.2065 O.3       1 UNK        -0.3300 
      9 O9          3.6821    5.9075    0.0089 O.2       1 UNK        -0.4300 
     10 C10         6.8719    4.9015    1.8602 C.3       1 UNK        -0.1200 
     11 C11         0.8723    1.8064    1.9400 C.3       1 UNK        -0.1800 
     12 C12         2.4166    6.4848    2.4354 C.3       1 UNK         0.1900 
     13 C13         7.9735    4.7576    2.9158 C.3       1 UNK        -0.1800 
     14 C14         0.9732    6.1331    2.0523 C.3       1 UNK        -0.1800 
     15 H15         5.1843    3.9186   -0.0664 H         1 UNK         0.0600 
     16 H16         5.3370    3.8869    2.9885 H         1 UNK         0.0600 
     17 H17         6.2579    2.8411    1.9478 H         1 UNK         0.0600 
     18 H18         2.5819    0.4896    1.6600 H         1 UNK         0.0300 
     19 H19         2.3387    1.0136    3.3106 H         1 UNK         0.0300 
     20 H20         7.3184    4.8476    0.8666 H         1 UNK         0.0600 
     21 H21         6.4291    5.8942    1.9459 H         1 UNK         0.0600 
     22 H22         0.1584    0.9975    2.0951 H         1 UNK         0.0600 
     23 H23         0.5733    2.6419    2.5733 H         1 UNK         0.0600 
     24 H24         0.7908    2.1268    0.9011 H         1 UNK         0.0600 
     25 H25         2.4607    6.7355    3.4953 H         1 UNK         0.0300 
     26 H26         2.7585    7.3669    1.8920 H         1 UNK         0.0300 
     27 H27         8.7301    5.5333    2.7957 H         1 UNK         0.0600 
     28 H28         7.5664    4.8434    3.9237 H         1 UNK         0.0600 
     29 H29         8.4724    3.7914    2.8361 H         1 UNK         0.0600 
     30 H30         0.3038    6.9676    2.2605 H         1 UNK         0.0600 
     31 H31         0.8899    5.8970    0.9912 H         1 UNK         0.0600 
     32 H32         0.6180    5.2708    2.6170 H         1 UNK         0.0600 
@<TRIPOS>BOND
     1    1    2 1    
     2    1    3 1    
     3    1    4 2    
     4    2    5 1    
     5    2    6 1    
     6    2   15 1    
     7    3    7 1    
     8    5    8 1    
     9    5    9 2    
    10    6   10 1    
    11    6   16 1    
    12    6   17 1    
    13    7   11 1    
    14    7   18 1    
    15    7   19 1    
    16    8   12 1    
    17   10   13 1    
    18   10   20 1    
    19   10   21 1    
    20   11   22 1    
    21   11   23 1    
    22   11   24 1    
    23   12   14 1    
    24   12   25 1    
    25   12   26 1    
    26   13   27 1    
    27   13   28 1    
    28   13   29 1    
    29   14   30 1    
    30   14   31 1    
    31   14   32 1    
@<TRIPOS>SUBSTRUCTURE
     1 UNK         1 GROUP             0       ****    0 ROOT    
