@<TRIPOS>MOLECULE
title: molecule 1
20   20    1
SMALL
USER_CHARGES


@<TRIPOS>ATOM
      1 C1          4.4897    1.8994    0.1886 C.ar      1 UNK        -0.1150 
      2 C2          3.1004    2.0980    0.0424 C.ar      1 UNK         0.0850 
      3 C3          5.3685    2.9990    0.2357 C.ar      1 UNK        -0.1150 
      4 C4          2.6015    3.4179   -0.0838 C.ar      1 UNK        -0.1150 
      5 N5          2.2796    0.9385   -0.0150 N.am      1 UNK        -0.3850 
      6 C6          4.8645    4.3085    0.1260 C.ar      1 UNK        -0.1150 
      7 C7          3.4820    4.5165   -0.0370 C.ar      1 UNK        -0.1150 
      8 C8          0.9687    0.8185    0.2659 C.2       1 UNK         0.5567 
      9 O9          0.2530    1.7409    0.6579 O.2       1 UNK        -0.5000 
     10 C10         0.5270   -0.5515    0.0658 C.2       1 UNK        -0.1717 
     11 C11        -0.7488   -0.9081    0.2939 C.2       1 UNK        -0.2300 
     12 H12         4.8895    0.8992    0.2719 H         1 UNK         0.1150 
     13 H13         6.4297    2.8373    0.3546 H         1 UNK         0.1150 
     14 H14         1.5503    3.6114   -0.2308 H         1 UNK         0.1150 
     15 H15         2.7607    0.0801   -0.2390 H         1 UNK         0.3000 
     16 H16         5.5381    5.1522    0.1607 H         1 UNK         0.1150 
     17 H17         3.0955    5.5206   -0.1317 H         1 UNK         0.1150 
     18 H18         1.2249   -1.3050   -0.2716 H         1 UNK         0.1150 
     19 H19        -1.0685   -1.9286    0.1426 H         1 UNK         0.1150 
     20 H20        -1.4925   -0.2002    0.6320 H         1 UNK         0.1150 
@<TRIPOS>BOND
     1    1    2 ar   
     2    1    3 ar   
     3    1   12 1    
     4    2    4 ar   
     5    2    5 1    
     6    3    6 ar   
     7    3   13 1    
     8    4    7 ar   
     9    4   14 1    
    10    5    8 am   BACKBONE|DICT|INTERRES
    11    5   15 1    
    12    6    7 ar   
    13    6   16 1    
    14    7   17 1    
    15    8    9 2    
    16    8   10 1    
    17   10   11 2    
    18   10   18 1    
    19   11   19 1    
    20   11   20 1    
@<TRIPOS>SUBSTRUCTURE
     1 UNK         1 GROUP             0       ****    0 ROOT    
