@<TRIPOS>MOLECULE
title: molecule 1
19   18    1
SMALL
USER_CHARGES


@<TRIPOS>ATOM
      1 C1          2.3279   -0.9734   -0.0775 C.2       1 UNK         0.5567 
      2 O2          2.2010    0.1011   -0.6663 O.2       1 UNK        -0.5000 
      3 C3          1.2411   -1.8148    0.3926 C.2       1 UNK        -0.1717 
      4 N4          3.5214   -1.5147    0.2125 N.am      1 UNK        -0.5000 
      5 C5         -0.0408   -1.4567    0.2052 C.2       1 UNK        -0.2300 
      6 C6          4.8186   -0.9329   -0.1204 C.3       1 UNK         0.1400 
      7 C7          5.2303    0.1042    0.9364 C.3       1 UNK        -0.1800 
      8 C8          5.8608   -2.0513   -0.2518 C.3       1 UNK        -0.1800 
      9 H9          1.4540   -2.7443    0.9017 H         1 UNK         0.1150 
     10 H10         3.5322   -2.3989    0.6991 H         1 UNK         0.3000 
     11 H11        -0.8437   -2.0872    0.5574 H         1 UNK         0.1150 
     12 H12        -0.3137   -0.5390   -0.2969 H         1 UNK         0.1150 
     13 H13         4.7458   -0.4325   -1.0879 H         1 UNK         0.0600 
     14 H14         6.1958    0.5483    0.6929 H         1 UNK         0.0600 
     15 H15         4.5044    0.9156    0.9990 H         1 UNK         0.0600 
     16 H16         5.3118   -0.3471    1.9258 H         1 UNK         0.0600 
     17 H17         6.8345   -1.6477   -0.5308 H         1 UNK         0.0600 
     18 H18         5.9831   -2.5947    0.6859 H         1 UNK         0.0600 
     19 H19         5.5718   -2.7702   -1.0193 H         1 UNK         0.0600 
@<TRIPOS>BOND
     1    1    2 2    
     2    1    3 1    
     3    1    4 am   BACKBONE|DICT|INTERRES
     4    3    5 2    
     5    3    9 1    
     6    4    6 1    
     7    4   10 1    
     8    5   11 1    
     9    5   12 1    
    10    6    7 1    
    11    6    8 1    
    12    6   13 1    
    13    7   14 1    
    14    7   15 1    
    15    7   16 1    
    16    8   17 1    
    17    8   18 1    
    18    8   19 1    
@<TRIPOS>SUBSTRUCTURE
     1 UNK         1 GROUP             0       ****    0 ROOT    
