@<TRIPOS>MOLECULE
title: molecule 1
25   25    1
SMALL
USER_CHARGES


@<TRIPOS>ATOM
      1 C1          2.0880    3.1139    1.7208 C.ar      1 UNK        -0.1150 
      2 C2          1.0324    4.0207    1.5033 C.ar      1 UNK        -0.1150 
      3 C3          3.2180    3.5028    2.4741 C.ar      1 UNK        -0.1150 
      4 C4          1.1010    5.3225    2.0355 C.ar      1 UNK        -0.1150 
      5 C5          3.2822    4.8106    3.0019 C.ar      1 UNK        -0.1150 
      6 C6          4.3664    2.5316    2.7056 C.3       1 UNK         0.3200 
      7 C7          2.2263    5.7172    2.7842 C.ar      1 UNK        -0.1150 
      8 C8          5.2610    2.4126    1.4574 C.3       1 UNK        -0.1200 
      9 O9          3.9092    1.2459    3.0770 O.3       1 UNK        -0.6830 
     10 C10         6.5745    1.6533    1.7101 C.3       1 UNK        -0.1200 
     11 C11         7.4679    1.5962    0.4660 C.3       1 UNK        -0.1800 
     12 H12         2.0287    2.1179    1.3068 H         1 UNK         0.1150 
     13 H13         0.1705    3.7173    0.9275 H         1 UNK         0.1150 
     14 H14         0.2917    6.0180    1.8686 H         1 UNK         0.1150 
     15 H15         4.1420    5.1245    3.5754 H         1 UNK         0.1150 
     16 H16         4.9649    2.9089    3.5361 H         1 UNK         0.0600 
     17 H17         2.2802    6.7162    3.1912 H         1 UNK         0.1150 
     18 H18         4.7061    1.9425    0.6440 H         1 UNK         0.0600 
     19 H19         5.5119    3.4165    1.1116 H         1 UNK         0.0600 
     20 H20         4.6601    0.6970    3.2428 H         1 UNK         0.4180 
     21 H21         7.1233    2.1304    2.5228 H         1 UNK         0.0600 
     22 H22         6.3596    0.6358    2.0379 H         1 UNK         0.0600 
     23 H23         8.3897    1.0528    0.6742 H         1 UNK         0.0600 
     24 H24         6.9633    1.0914   -0.3583 H         1 UNK         0.0600 
     25 H25         7.7408    2.5970    0.1301 H         1 UNK         0.0600 
@<TRIPOS>BOND
     1    1    2 ar   
     2    1    3 ar   
     3    1   12 1    
     4    2    4 ar   
     5    2   13 1    
     6    3    5 ar   
     7    3    6 1    
     8    4    7 ar   
     9    4   14 1    
    10    5    7 ar   
    11    5   15 1    
    12    6    8 1    
    13    6    9 1    
    14    6   16 1    
    15    7   17 1    
    16    8   10 1    
    17    8   18 1    
    18    8   19 1    
    19    9   20 1    
    20   10   11 1    
    21   10   21 1    
    22   10   22 1    
    23   11   23 1    
    24   11   24 1    
    25   11   25 1    
@<TRIPOS>SUBSTRUCTURE
     1 UNK         1 GROUP             0       ****    0 ROOT    
