@<TRIPOS>MOLECULE
title: molecule 1
26   26    1
SMALL
USER_CHARGES


@<TRIPOS>ATOM
      1 S1          5.2870    1.7277   -8.8789 S.2       1 UNK        -0.0075 
      2 C2          3.8027    1.9253   -8.3350 C.1       1 UNK         0.2438 
      3 N3          2.6848    2.1617   -7.9074 N.2       1 UNK        -0.3151 
      4 C4          2.1102    2.3497   -6.6516 C.ar      1 UNK         0.0788 
      5 C5          0.7275    2.6133   -6.5669 C.ar      1 UNK        -0.1150 
      6 C6          2.8739    2.2831   -5.4631 C.ar      1 UNK        -0.1150 
      7 C7          0.1128    2.8085   -5.3149 C.ar      1 UNK        -0.1150 
      8 C8          2.2598    2.4782   -4.2108 C.ar      1 UNK        -0.1150 
      9 C9          0.8773    2.7426   -4.1322 C.ar      1 UNK        -0.1150 
     10 C10         0.2153    2.9491   -2.7831 C.3       1 UNK        -0.0050 
     11 C11        -0.2967    1.6329   -2.1803 C.3       1 UNK        -0.1200 
     12 C12        -0.9685    1.8323   -0.8143 C.3       1 UNK        -0.1200 
     13 C13        -1.4796    0.5187   -0.2124 C.3       1 UNK        -0.1800 
     14 H14         0.1313    2.6662   -7.4663 H         1 UNK         0.1150 
     15 H15         3.9344    2.0816   -5.5025 H         1 UNK         0.1150 
     16 H16        -0.9478    3.0074   -5.2655 H         1 UNK         0.1150 
     17 H17         2.8538    2.4226   -3.3102 H         1 UNK         0.1150 
     18 H18         0.9290    3.4185   -2.1047 H         1 UNK         0.0600 
     19 H19        -0.6092    3.6545   -2.8956 H         1 UNK         0.0600 
     20 H20        -1.0054    1.1704   -2.8686 H         1 UNK         0.0600 
     21 H21         0.5345    0.9341   -2.0768 H         1 UNK         0.0600 
     22 H22        -0.2622    2.2929   -0.1226 H         1 UNK         0.0600 
     23 H23        -1.8015    2.5292   -0.9142 H         1 UNK         0.0600 
     24 H24        -1.9506    0.6922    0.7553 H         1 UNK         0.0600 
     25 H25        -2.2183    0.0487   -0.8622 H         1 UNK         0.0600 
     26 H26        -0.6644   -0.1898   -0.0632 H         1 UNK         0.0600 
@<TRIPOS>BOND
     1    1    2 2    
     2    2    3 2    
     3    3    4 1    
     4    4    5 ar   
     5    4    6 ar   
     6    5    7 ar   
     7    5   14 1    
     8    6    8 ar   
     9    6   15 1    
    10    7    9 ar   
    11    7   16 1    
    12    8    9 ar   
    13    8   17 1    
    14    9   10 1    
    15   10   11 1    
    16   10   18 1    
    17   10   19 1    
    18   11   12 1    
    19   11   20 1    
    20   11   21 1    
    21   12   13 1    
    22   12   22 1    
    23   12   23 1    
    24   13   24 1    
    25   13   25 1    
    26   13   26 1    
@<TRIPOS>SUBSTRUCTURE
     1 UNK         1 GROUP             0       ****    0 ROOT    
