@<TRIPOS>MOLECULE
title: molecule 1
17   17    1
SMALL
USER_CHARGES


@<TRIPOS>ATOM
      1 N1          6.0295   -2.5804   -0.3047 N.pl3     1 UNK        -0.9000 
      2 C2          4.8423   -1.8782   -0.1054 C.ar      1 UNK         0.1800 
      3 C3          3.6111   -2.5638   -0.0885 C.ar      1 UNK        -0.1150 
      4 C4          4.8726   -0.4823    0.0793 C.ar      1 UNK        -0.1150 
      5 C5          2.4024   -1.8592    0.1130 C.ar      1 UNK         0.1500 
      6 C6          3.6727    0.2256    0.2804 C.ar      1 UNK        -0.1150 
      7 C7          1.0659   -2.5886    0.1334 C.3       1 UNK         0.4500 
      8 C8          2.4420   -0.4588    0.2975 C.ar      1 UNK         0.2200 
      9 F9          1.2119   -3.9007   -0.0556 F         1 UNK        -0.2000 
     10 F10         0.4690   -2.3990    1.3100 F         1 UNK        -0.2000 
     11 F11         0.2795   -2.1116   -0.8314 F         1 UNK        -0.2000 
     12 F12         1.2966    0.2376    0.4923 F         1 UNK        -0.2200 
     13 H13         6.9244   -2.1124   -0.3210 H         1 UNK         0.3600 
     14 H14         6.0366   -3.5814   -0.4397 H         1 UNK         0.3600 
     15 H15         3.5995   -3.6344   -0.2311 H         1 UNK         0.1150 
     16 H16         5.8125    0.0504    0.0676 H         1 UNK         0.1150 
     17 H17         3.6956    1.2960    0.4221 H         1 UNK         0.1150 
@<TRIPOS>BOND
     1    1    2 1    
     2    1   13 1    
     3    1   14 1    
     4    2    3 ar   
     5    2    4 ar   
     6    3    5 ar   
     7    3   15 1    
     8    4    6 ar   
     9    4   16 1    
    10    5    7 1    
    11    5    8 ar   
    12    6    8 ar   
    13    6   17 1    
    14    7    9 1    
    15    7   10 1    
    16    7   11 1    
    17    8   12 1    
@<TRIPOS>SUBSTRUCTURE
     1 UNK         1 GROUP             0       ****    0 ROOT    
