@<TRIPOS>MOLECULE
title: molecule 1
25   24    1
SMALL
USER_CHARGES


@<TRIPOS>ATOM
      1 C1          8.6234   -0.9197   -0.3709 C.2       1 UNK        -0.2300 
      2 C2          7.3654   -0.7430    0.0734 C.2       1 UNK         0.0000 
      3 C3          6.9526    0.4815    0.8770 C.3       1 UNK        -0.1800 
      4 C4          6.3333   -1.7683   -0.2227 C.2       1 UNK         0.5100 
      5 O5          6.5511   -2.7961   -0.8684 O.2       1 UNK        -0.4300 
      6 O6          5.1294   -1.4513    0.2927 O.3       1 UNK        -0.3300 
      7 C7          4.0226   -2.3159    0.0934 C.3       1 UNK         0.1900 
      8 C8          2.7788   -1.7063    0.7462 C.3       1 UNK         0.1400 
      9 O9          2.3223   -0.6249   -0.0496 O.3       1 UNK        -0.4000 
     10 C10         1.1740    0.0067    0.4903 C.3       1 UNK         0.1400 
     11 C11         0.7617    1.1562   -0.4319 C.3       1 UNK        -0.1800 
     12 H12         8.9156   -1.7898   -0.9418 H         1 UNK         0.1150 
     13 H13         9.3903   -0.1869   -0.1675 H         1 UNK         0.1150 
     14 H14         6.5836    0.1910    1.8613 H         1 UNK         0.0600 
     15 H15         7.7955    1.1575    1.0236 H         1 UNK         0.0600 
     16 H16         6.1674    1.0353    0.3609 H         1 UNK         0.0600 
     17 H17         3.8516   -2.4883   -0.9702 H         1 UNK         0.0300 
     18 H18         4.2422   -3.2809    0.5521 H         1 UNK         0.0300 
     19 H19         1.9949   -2.4626    0.8063 H         1 UNK         0.0300 
     20 H20         2.9999   -1.3812    1.7641 H         1 UNK         0.0300 
     21 H21         0.3564   -0.7100    0.5802 H         1 UNK         0.0300 
     22 H22         1.3896    0.3904    1.4887 H         1 UNK         0.0300 
     23 H23        -0.1208    1.6674   -0.0469 H         1 UNK         0.0600 
     24 H24         1.5619    1.8911   -0.5222 H         1 UNK         0.0600 
     25 H25         0.5274    0.7905   -1.4319 H         1 UNK         0.0600 
@<TRIPOS>BOND
     1    1    2 2    
     2    1   12 1    
     3    1   13 1    
     4    2    3 1    
     5    2    4 1    
     6    3   14 1    
     7    3   15 1    
     8    3   16 1    
     9    4    5 2    
    10    4    6 1    
    11    6    7 1    
    12    7    8 1    
    13    7   17 1    
    14    7   18 1    
    15    8    9 1    
    16    8   19 1    
    17    8   20 1    
    18    9   10 1    
    19   10   11 1    
    20   10   21 1    
    21   10   22 1    
    22   11   23 1    
    23   11   24 1    
    24   11   25 1    
@<TRIPOS>SUBSTRUCTURE
     1 UNK         1 GROUP             0       ****    0 ROOT    
