@<TRIPOS>MOLECULE
title: molecule 1
9   8    1
SMALL
USER_CHARGES


@<TRIPOS>ATOM
      1 C1          0.4929    0.5614    0.1054 C.1       1 UNK         0.0100 
      2 C2         -0.3979   -0.2716    0.1684 C.1       1 UNK        -0.2100 
      3 C3          1.5557    1.5751    0.0335 C.3       1 UNK         0.0600 
      4 N4          2.8710    0.9692    0.0759 N.3       1 UNK        -0.9000 
      5 H5         -1.1738   -1.0019    0.2212 H         1 UNK         0.2000 
      6 H6          1.4382    2.1427   -0.8899 H         1 UNK         0.0600 
      7 H7          1.4377    2.2634    0.8707 H         1 UNK         0.0600 
      8 H8          3.5793    1.6894    0.0832 H         1 UNK         0.3600 
      9 H9          2.9783    0.4494    0.9353 H         1 UNK         0.3600 
@<TRIPOS>BOND
     1    1    2 3    
     2    1    3 1    
     3    2    5 1    
     4    3    4 1    
     5    3    6 1    
     6    3    7 1    
     7    4    8 1    
     8    4    9 1    
@<TRIPOS>SUBSTRUCTURE
     1 UNK         1 GROUP             0       ****    0 ROOT    
