@<TRIPOS>MOLECULE
title: molecule 1
38   37    1
SMALL
USER_CHARGES


@<TRIPOS>ATOM
      1 N1          5.5905   -0.4939    0.6887 N.pl3     1 UNK        -0.4272 
      2 C2          6.3302   -0.0066   -0.3390 C.2       1 UNK         0.4157 
      3 C3          4.3275    0.0676    1.1656 C.3       1 UNK         0.0320 
      4 S4          6.0106    1.3201   -1.2940 S.2       1 UNK        -0.4762 
      5 N5          7.4263   -0.7685   -0.5114 N.pl3     1 UNK        -0.7839 
      6 C6          3.1267   -0.5086    0.3986 C.3       1 UNK        -0.1200 
      7 C7          1.7898    0.0511    0.9038 C.3       1 UNK        -0.1200 
      8 C8          0.5856   -0.5191    0.1404 C.3       1 UNK        -0.1200 
      9 C9         -0.7520    0.0413    0.6454 C.3       1 UNK        -0.1200 
     10 C10        -1.9563   -0.5288   -0.1181 C.3       1 UNK        -0.1200 
     11 C11        -3.2938    0.0317    0.3869 C.3       1 UNK        -0.1200 
     12 C12        -4.4981   -0.5384   -0.3767 C.3       1 UNK        -0.1200 
     13 C13        -5.8356    0.0219    0.1281 C.3       1 UNK        -0.1200 
     14 C14        -7.0374   -0.5471   -0.6340 C.3       1 UNK        -0.1800 
     15 H15         5.9303   -1.3135    1.1695 H         1 UNK         0.2912 
     16 H16         4.2339   -0.1767    2.2240 H         1 UNK         0.0600 
     17 H17         4.3377    1.1566    1.1070 H         1 UNK         0.0600 
     18 H18         8.0769   -0.5270   -1.2452 H         1 UNK         0.4142 
     19 H19         7.5905   -1.5661    0.0843 H         1 UNK         0.4142 
     20 H20         3.2290   -0.2893   -0.6649 H         1 UNK         0.0600 
     21 H21         3.1243   -1.5954    0.4904 H         1 UNK         0.0600 
     22 H22         1.6832   -0.1690    1.9668 H         1 UNK         0.0600 
     23 H23         1.7954    1.1380    0.8123 H         1 UNK         0.0600 
     24 H24         0.6929   -0.2984   -0.9224 H         1 UNK         0.0600 
     25 H25         0.5805   -1.6061    0.2309 H         1 UNK         0.0600 
     26 H26        -0.8593   -0.1792    1.7082 H         1 UNK         0.0600 
     27 H27        -0.7469    1.1283    0.5546 H         1 UNK         0.0600 
     28 H28        -1.8490   -0.3082   -1.1809 H         1 UNK         0.0600 
     29 H29        -1.9614   -1.6158   -0.0275 H         1 UNK         0.0600 
     30 H30        -3.4011   -0.1889    1.4497 H         1 UNK         0.0600 
     31 H31        -3.2887    1.1186    0.2962 H         1 UNK         0.0600 
     32 H32        -4.3911   -0.3179   -1.4396 H         1 UNK         0.0600 
     33 H33        -4.5035   -1.6254   -0.2861 H         1 UNK         0.0600 
     34 H34        -5.9475   -0.1985    1.1903 H         1 UNK         0.0600 
     35 H35        -5.8351    1.1087    0.0370 H         1 UNK         0.0600 
     36 H36        -7.9708   -0.1314   -0.2538 H         1 UNK         0.0600 
     37 H37        -6.9773   -0.3117   -1.6970 H         1 UNK         0.0600 
     38 H38        -7.0908   -1.6314   -0.5326 H         1 UNK         0.0600 
@<TRIPOS>BOND
     1    1    2 1    
     2    1    3 1    
     3    1   15 1    
     4    2    4 2    
     5    2    5 1    
     6    3    6 1    
     7    3   16 1    
     8    3   17 1    
     9    5   18 1    
    10    5   19 1    
    11    6    7 1    
    12    6   20 1    
    13    6   21 1    
    14    7    8 1    
    15    7   22 1    
    16    7   23 1    
    17    8    9 1    
    18    8   24 1    
    19    8   25 1    
    20    9   10 1    
    21    9   26 1    
    22    9   27 1    
    23   10   11 1    
    24   10   28 1    
    25   10   29 1    
    26   11   12 1    
    27   11   30 1    
    28   11   31 1    
    29   12   13 1    
    30   12   32 1    
    31   12   33 1    
    32   13   14 1    
    33   13   34 1    
    34   13   35 1    
    35   14   36 1    
    36   14   37 1    
    37   14   38 1    
@<TRIPOS>SUBSTRUCTURE
     1 UNK         1 GROUP             0       ****    0 ROOT    
