@<TRIPOS>MOLECULE
title: molecule 1
22   21    1
SMALL
USER_CHARGES


@<TRIPOS>ATOM
      1 C1          0.9716    1.7008   -0.4306 C.3       1 UNK        -0.1200 
      2 C2          2.2187    1.0102    0.1441 C.3       1 UNK        -0.1200 
      3 C3         -0.3126    0.9810   -0.0260 C.2       1 UNK         0.3750 
      4 C4          3.5194    1.7197   -0.2591 C.3       1 UNK        -0.1200 
      5 Cl5        -0.9136    1.4365    1.6267 Cl        1 UNK        -0.1525 
      6 O6         -0.8949    0.1681   -0.7411 O.2       1 UNK        -0.2225 
      7 C7          4.7677    1.0328    0.3137 C.3       1 UNK        -0.1200 
      8 C8          6.0685    1.7422   -0.0893 C.3       1 UNK        -0.1200 
      9 C9          7.3144    1.0566    0.4824 C.3       1 UNK        -0.1800 
     10 H10         0.9188    2.7344   -0.0870 H         1 UNK         0.0600 
     11 H11         1.0277    1.7339   -1.5193 H         1 UNK         0.0600 
     12 H12         2.1508    0.9752    1.2326 H         1 UNK         0.0600 
     13 H13         2.2528   -0.0260   -0.1960 H         1 UNK         0.0600 
     14 H14         3.5914    1.7540   -1.3469 H         1 UNK         0.0600 
     15 H15         3.4875    2.7556    0.0810 H         1 UNK         0.0600 
     16 H16         4.6960    0.9986    1.4016 H         1 UNK         0.0600 
     17 H17         4.7999   -0.0031   -0.0262 H         1 UNK         0.0600 
     18 H18         6.1452    1.7765   -1.1767 H         1 UNK         0.0600 
     19 H19         6.0413    2.7780    0.2508 H         1 UNK         0.0600 
     20 H20         8.2203    1.5821    0.1796 H         1 UNK         0.0600 
     21 H21         7.2890    1.0385    1.5723 H         1 UNK         0.0600 
     22 H22         7.3939    0.0274    0.1312 H         1 UNK         0.0600 
@<TRIPOS>BOND
     1    1    2 1    
     2    1    3 1    
     3    1   10 1    
     4    1   11 1    
     5    2    4 1    
     6    2   12 1    
     7    2   13 1    
     8    3    5 1    
     9    3    6 2    
    10    4    7 1    
    11    4   14 1    
    12    4   15 1    
    13    7    8 1    
    14    7   16 1    
    15    7   17 1    
    16    8    9 1    
    17    8   18 1    
    18    8   19 1    
    19    9   20 1    
    20    9   21 1    
    21    9   22 1    
@<TRIPOS>SUBSTRUCTURE
     1 UNK         1 GROUP             0       ****    0 ROOT    
