@<TRIPOS>MOLECULE
title: molecule 1
23   22    1
SMALL
USER_CHARGES


@<TRIPOS>ATOM
      1 O1          4.8443    0.6868    0.1319 O.2       1 UNK        -0.4500 
      2 C2          3.8298    0.1440   -0.3001 C.2       1 UNK         0.4500 
      3 C3          2.5623    0.1127    0.4353 C.2       1 UNK        -0.1150 
      4 C4          1.4818   -0.4948   -0.0834 C.2       1 UNK        -0.1150 
      5 C5          0.1357   -0.5751    0.6065 C.3       1 UNK        -0.1200 
      6 C6         -0.9789    0.0657   -0.2322 C.3       1 UNK        -0.1200 
      7 C7         -2.3509   -0.0147    0.4527 C.3       1 UNK        -0.1200 
      8 C8         -3.4668    0.6263   -0.3849 C.3       1 UNK        -0.1200 
      9 C9         -4.8361    0.5461    0.2989 C.3       1 UNK        -0.1800 
     10 H10         3.8178   -0.3522   -1.2710 H         1 UNK         0.0000 
     11 H11         2.5217    0.5910    1.4032 H         1 UNK         0.1150 
     12 H12         1.5398   -0.9695   -1.0532 H         1 UNK         0.1150 
     13 H13        -0.0920   -1.6256    0.7901 H         1 UNK         0.0600 
     14 H14         0.1946   -0.0905    1.5821 H         1 UNK         0.0600 
     15 H15        -0.7310    1.1102   -0.4260 H         1 UNK         0.0600 
     16 H16        -1.0302   -0.4253   -1.2049 H         1 UNK         0.0600 
     17 H17        -2.5983   -1.0590    0.6473 H         1 UNK         0.0600 
     18 H18        -2.3001    0.4768    1.4251 H         1 UNK         0.0600 
     19 H19        -3.2240    1.6716   -0.5798 H         1 UNK         0.0600 
     20 H20        -3.5224    0.1360   -1.3575 H         1 UNK         0.0600 
     21 H21        -5.6063    1.0085   -0.3187 H         1 UNK         0.0600 
     22 H22        -5.1285   -0.4895    0.4750 H         1 UNK         0.0600 
     23 H23        -4.8273    1.0607    1.2601 H         1 UNK         0.0600 
@<TRIPOS>BOND
     1    1    2 2    
     2    2    3 1    
     3    2   10 1    
     4    3    4 2    
     5    3   11 1    
     6    4    5 1    
     7    4   12 1    
     8    5    6 1    
     9    5   13 1    
    10    5   14 1    
    11    6    7 1    
    12    6   15 1    
    13    6   16 1    
    14    7    8 1    
    15    7   17 1    
    16    7   18 1    
    17    8    9 1    
    18    8   19 1    
    19    8   20 1    
    20    9   21 1    
    21    9   22 1    
    22    9   23 1    
@<TRIPOS>SUBSTRUCTURE
     1 UNK         1 GROUP             0       ****    0 ROOT    
