@<TRIPOS>MOLECULE
title: molecule 1
16   16    1
SMALL
USER_CHARGES


@<TRIPOS>ATOM
      1 C1          6.9094    1.0657    0.1288 C.ar      1 UNK        -0.1150 
      2 C2          5.5030    1.1485    0.1226 C.ar      1 UNK        -0.1150 
      3 C3          7.6850    2.2414    0.1152 C.ar      1 UNK        -0.1150 
      4 C4          4.8697    2.4088    0.1028 C.ar      1 UNK         0.1164 
      5 C5          7.0543    3.5007    0.0955 C.ar      1 UNK        -0.1150 
      6 C6          5.6479    3.5852    0.0892 C.ar      1 UNK        -0.1150 
      7 C7          3.4190    2.4948    0.0964 C.1       1 UNK        -0.1164 
      8 C8          2.1993    2.5552    0.0911 C.1       1 UNK         0.0000 
      9 C9          0.7306    2.5822    0.0727 C.2       1 UNK         0.4500 
     10 O10         0.0828    1.5384    0.1142 O.2       1 UNK        -0.4500 
     11 H11         7.3931    0.1001    0.1440 H         1 UNK         0.1150 
     12 H12         4.9155    0.2415    0.1331 H         1 UNK         0.1150 
     13 H13         8.7632    2.1773    0.1200 H         1 UNK         0.1150 
     14 H14         7.6491    4.4022    0.0851 H         1 UNK         0.1150 
     15 H15         5.1724    4.5555    0.0740 H         1 UNK         0.1150 
     16 H16         0.2778    3.5723    0.0208 H         1 UNK         0.0000 
@<TRIPOS>BOND
     1    1    2 ar   
     2    1    3 ar   
     3    1   11 1    
     4    2    4 ar   
     5    2   12 1    
     6    3    5 ar   
     7    3   13 1    
     8    4    6 ar   
     9    4    7 1    
    10    5    6 ar   
    11    5   14 1    
    12    6   15 1    
    13    7    8 3    
    14    8    9 1    
    15    9   10 2    
    16    9   16 1    
@<TRIPOS>SUBSTRUCTURE
     1 UNK         1 GROUP             0       ****    0 ROOT    
