@<TRIPOS>MOLECULE
title: molecule 1
13   13    1
SMALL
USER_CHARGES


@<TRIPOS>ATOM
      1 Cl1         2.1645   -1.7657    0.1216 Cl        1 UNK        -0.1800 
      2 C2          0.8996   -0.5911    0.1088 C.ar      1 UNK         0.1800 
      3 C3         -0.4456   -1.0115    0.1009 C.ar      1 UNK        -0.1150 
      4 C4          1.2073    0.7851    0.1062 C.ar      1 UNK         0.2200 
      5 C5         -1.4830   -0.0575    0.0905 C.ar      1 UNK         0.1500 
      6 F6          2.4979    1.1964    0.1137 F         1 UNK        -0.2200 
      7 C7          0.1698    1.7379    0.0957 C.ar      1 UNK        -0.1150 
      8 O8         -2.7862   -0.4613    0.0828 O.3       1 UNK        -0.5850 
      9 C9         -1.1745    1.3173    0.0879 C.ar      1 UNK        -0.1150 
     10 H10        -0.6772   -2.0666    0.1029 H         1 UNK         0.1150 
     11 H11         0.4057    2.7918    0.0938 H         1 UNK         0.1150 
     12 H12        -2.8880   -1.4007    0.0853 H         1 UNK         0.4350 
     13 H13        -1.9678    2.0506    0.0799 H         1 UNK         0.1150 
@<TRIPOS>BOND
     1    1    2 1    
     2    2    3 ar   
     3    2    4 ar   
     4    3    5 ar   
     5    3   10 1    
     6    4    6 1    
     7    4    7 ar   
     8    5    8 1    
     9    5    9 ar   
    10    7    9 ar   
    11    7   11 1    
    12    8   12 1    
    13    9   13 1    
@<TRIPOS>SUBSTRUCTURE
     1 UNK         1 GROUP             0       ****    0 ROOT    
