@<TRIPOS>MOLECULE
title: molecule 1
22   24    1
SMALL
USER_CHARGES


@<TRIPOS>ATOM
      1 C1          4.7573   -0.6418   -0.1858 C.ar      1 UNK         0.0850 
      2 C2          5.8734    0.1808    0.0713 C.ar      1 UNK        -0.1150 
      3 C3          4.9254   -2.0461   -0.2036 C.ar      1 UNK         0.1525 
      4 O4          3.5587   -0.0269   -0.4541 O.3       1 UNK        -0.1700 
      5 C5          7.1407   -0.3846    0.3108 C.ar      1 UNK        -0.1150 
      6 C6          6.1954   -2.6120    0.0277 C.ar      1 UNK        -0.1150 
      7 S7          3.5621   -3.1181   -0.5061 S.3       1 UNK        -0.3050 
      8 C8          2.3661   -0.6447   -0.1665 C.ar      1 UNK         0.0850 
      9 C9          7.3026   -1.7823    0.2869 C.ar      1 UNK        -0.1150 
     10 C10         2.2011   -2.0495   -0.1820 C.ar      1 UNK         0.1525 
     11 C11         1.2521    0.1751    0.1078 C.ar      1 UNK        -0.1150 
     12 C12         0.9363   -2.6185    0.0690 C.ar      1 UNK        -0.1150 
     13 C13        -0.0099   -0.3934    0.3669 C.ar      1 UNK        -0.1150 
     14 C14        -0.1688   -1.7916    0.3456 C.ar      1 UNK        -0.1150 
     15 H15         5.7572    1.2547    0.0794 H         1 UNK         0.1150 
     16 H16         7.9891    0.2545    0.5071 H         1 UNK         0.1150 
     17 H17         6.3216   -3.6847    0.0123 H         1 UNK         0.1150 
     18 H18         8.2745   -2.2178    0.4672 H         1 UNK         0.1150 
     19 H19         1.3657    1.2492    0.1140 H         1 UNK         0.1150 
     20 H20         0.8125   -3.6915    0.0554 H         1 UNK         0.1150 
     21 H21        -0.8567    0.2436    0.5764 H         1 UNK         0.1150 
     22 H22        -1.1366   -2.2294    0.5409 H         1 UNK         0.1150 
@<TRIPOS>BOND
     1    1    2 ar   
     2    1    3 ar   
     3    1    4 1    
     4    2    5 ar   
     5    2   15 1    
     6    3    6 ar   
     7    3    7 1    
     8    4    8 1    
     9    5    9 ar   
    10    5   16 1    
    11    6    9 ar   
    12    6   17 1    
    13    7   10 1    
    14    8   10 ar   
    15    8   11 ar   
    16    9   18 1    
    17   10   12 ar   
    18   11   13 ar   
    19   11   19 1    
    20   12   14 ar   
    21   12   20 1    
    22   13   14 ar   
    23   13   21 1    
    24   14   22 1    
@<TRIPOS>SUBSTRUCTURE
     1 UNK         1 GROUP             0       ****    0 ROOT    
