@<TRIPOS>MOLECULE
title: molecule 1
26   25    1
SMALL
USER_CHARGES


@<TRIPOS>ATOM
      1 C1         -1.2498    0.9888    0.1063 C.3       1 UNK        -0.1800 
      2 C2          0.0222    1.8437    0.1180 C.3       1 UNK        -0.1200 
      3 C3          1.3023    0.9959    0.1378 C.3       1 UNK        -0.1200 
      4 C4          2.5769    1.8523    0.1495 C.3       1 UNK        -0.1200 
      5 C5          3.8569    1.0041    0.1691 C.3       1 UNK        -0.1200 
      6 C6          5.1322    1.8625    0.1800 C.3       1 UNK        -0.0095 
      7 C7          6.4264    1.0270    0.2254 C.3       1 UNK        -0.0530 
      8 C8          7.6521    1.8867    0.5393 C.2       1 UNK         0.5200 
      9 Br9         6.6616    0.0640   -1.5048 Br        1 UNK        -0.2039 
     10 O10         7.9006    2.8003   -0.4427 O.3       1 UNK        -0.5300 
     11 O11         8.3178    1.7566    1.5638 O.2       1 UNK        -0.4400 
     12 H12        -2.1403    1.6176    0.0923 H         1 UNK         0.0600 
     13 H13        -1.2837    0.3449   -0.7729 H         1 UNK         0.0600 
     14 H14        -1.3055    0.3532    0.9905 H         1 UNK         0.0600 
     15 H15         0.0262    2.4926   -0.7585 H         1 UNK         0.0600 
     16 H16         0.0046    2.5008    0.9882 H         1 UNK         0.0600 
     17 H17         1.2933    0.3468    1.0144 H         1 UNK         0.0600 
     18 H18         1.3149    0.3387   -0.7326 H         1 UNK         0.0600 
     19 H19         2.5856    2.5009   -0.7274 H         1 UNK         0.0600 
     20 H20         2.5637    2.5097    1.0198 H         1 UNK         0.0600 
     21 H21         3.8480    0.3563    1.0465 H         1 UNK         0.0600 
     22 H22         3.8630    0.3454   -0.6998 H         1 UNK         0.0600 
     23 H23         5.1439    2.5128   -0.6959 H         1 UNK         0.0600 
     24 H24         5.0961    2.5216    1.0490 H         1 UNK         0.0600 
     25 H25         6.3463    0.2644    1.0011 H         1 UNK         0.1464 
     26 H26         8.6585    3.3313   -0.2528 H         1 UNK         0.4500 
@<TRIPOS>BOND
     1    1    2 1    
     2    1   12 1    
     3    1   13 1    
     4    1   14 1    
     5    2    3 1    
     6    2   15 1    
     7    2   16 1    
     8    3    4 1    
     9    3   17 1    
    10    3   18 1    
    11    4    5 1    
    12    4   19 1    
    13    4   20 1    
    14    5    6 1    
    15    5   21 1    
    16    5   22 1    
    17    6    7 1    
    18    6   23 1    
    19    6   24 1    
    20    7    8 1    
    21    7    9 1    
    22    7   25 1    
    23    8   10 1    
    24    8   11 2    
    25   10   26 1    
@<TRIPOS>SUBSTRUCTURE
     1 UNK         1 GROUP             0       ****    0 ROOT    
