@<TRIPOS>MOLECULE
title: molecule 1
15   15    1
SMALL
USER_CHARGES


@<TRIPOS>ATOM
      1 C1          2.1350    1.9335    0.7431 C.2       1 UNK         0.0000 
      2 C2          0.8389    1.1531    0.7279 C.3       1 UNK        -0.1800 
      3 C3          3.3182    1.5066    0.2923 C.2       1 UNK        -0.1150 
      4 C4          2.1676    3.3361    1.3075 C.3       1 UNK        -0.1200 
      5 C5          4.2968    2.5642    0.4948 C.2       1 UNK         0.4700 
      6 C6          3.6357    3.7767    1.1439 C.3       1 UNK        -0.1200 
      7 O7          5.4892    2.5244    0.1998 O.2       1 UNK        -0.4700 
      8 H8          0.0866    1.6811    0.1416 H         1 UNK         0.0600 
      9 H9          0.9835    0.1645    0.2909 H         1 UNK         0.0600 
     10 H10         0.4610    1.0282    1.7427 H         1 UNK         0.0600 
     11 H11         3.5459    0.5487   -0.1516 H         1 UNK         0.1150 
     12 H12         1.8648    3.3317    2.3551 H         1 UNK         0.0600 
     13 H13         1.4900    3.9854    0.7521 H         1 UNK         0.0600 
     14 H14         4.1025    3.9956    2.1044 H         1 UNK         0.0600 
     15 H15         3.7270    4.6505    0.4985 H         1 UNK         0.0600 
@<TRIPOS>BOND
     1    1    2 1    
     2    1    3 2    
     3    1    4 1    
     4    2    8 1    
     5    2    9 1    
     6    2   10 1    
     7    3    5 1    
     8    3   11 1    
     9    4    6 1    
    10    4   12 1    
    11    4   13 1    
    12    5    6 1    
    13    5    7 2    
    14    6   14 1    
    15    6   15 1    
@<TRIPOS>SUBSTRUCTURE
     1 UNK         1 GROUP             0       ****    0 ROOT    
