@<TRIPOS>MOLECULE
title: molecule 1
20   19    1
SMALL
USER_CHARGES


@<TRIPOS>ATOM
      1 C1          2.1401   -2.1739    0.1027 C.2       1 UNK         0.7212 
      2 S2          3.8199   -2.1657    0.1084 S.2       1 UNK        -0.4762 
      3 N3          1.3886   -3.3214    0.1086 N.pl3     1 UNK        -0.2219 
      4 N4          1.3775   -1.0337    0.0916 N.pl3     1 UNK        -0.2219 
      5 C5          1.9092   -4.6010   -0.3786 C.3       1 UNK        -0.1303 
      6 C6          0.1864   -3.4577    0.9378 C.3       1 UNK        -0.1303 
      7 C7          1.8823    0.2508    0.5823 C.3       1 UNK        -0.1303 
      8 C8          0.1797   -0.9091   -0.7459 C.3       1 UNK        -0.1303 
      9 H9          1.0965   -5.3059   -0.5574 H         1 UNK         0.0600 
     10 H10         2.4436   -4.4773   -1.3216 H         1 UNK         0.0600 
     11 H11         2.5869   -5.0460    0.3509 H         1 UNK         0.0600 
     12 H12         0.1775   -4.4204    1.4501 H         1 UNK         0.0600 
     13 H13         0.1239   -2.6854    1.7060 H         1 UNK         0.0600 
     14 H14        -0.7090   -3.4011    0.3184 H         1 UNK         0.0600 
     15 H15         1.0616    0.9478    0.7555 H         1 UNK         0.0600 
     16 H16         2.4114    0.1324    1.5289 H         1 UNK         0.0600 
     17 H17         2.5607    0.7025   -0.1425 H         1 UNK         0.0600 
     18 H18         0.1651    0.0535   -1.2583 H         1 UNK         0.0600 
     19 H19         0.1301   -1.6819   -1.5144 H         1 UNK         0.0600 
     20 H20        -0.7192   -0.9744   -0.1326 H         1 UNK         0.0600 
@<TRIPOS>BOND
     1    1    2 2    
     2    1    3 1    
     3    1    4 1    
     4    3    5 1    
     5    3    6 1    
     6    4    7 1    
     7    4    8 1    
     8    5    9 1    
     9    5   10 1    
    10    5   11 1    
    11    6   12 1    
    12    6   13 1    
    13    6   14 1    
    14    7   15 1    
    15    7   16 1    
    16    7   17 1    
    17    8   18 1    
    18    8   19 1    
    19    8   20 1    
@<TRIPOS>SUBSTRUCTURE
     1 UNK         1 GROUP             0       ****    0 ROOT    
