@<TRIPOS>MOLECULE
title: molecule 1
18   18    1
SMALL
USER_CHARGES


@<TRIPOS>ATOM
      1 C1          0.0257    2.1334    0.1715 C.2       1 UNK        -0.0738 
      2 C2         -0.9878    1.1295    0.1780 C.2       1 UNK        -0.0738 
      3 C3          1.2949    1.6130    0.1415 C.2       1 UNK        -0.1787 
      4 C4         -0.4789   -0.1426    0.1528 C.2       1 UNK        -0.3255 
      5 S5          1.2639   -0.1375    0.1205 S.3       1 UNK         0.0328 
      6 C6          2.5725    2.3260    0.1265 C.2       1 UNK         0.6250 
      7 O7          2.6362    3.5563    0.1405 O.2       1 UNK        -0.4300 
      8 O8          3.6423    1.5078    0.0966 O.3       1 UNK        -0.3300 
      9 C9          4.9498    2.0563    0.0790 C.3       1 UNK         0.1900 
     10 C10         5.9734    0.9189    0.0460 C.3       1 UNK        -0.1800 
     11 H11        -0.2089    3.1878    0.1888 H         1 UNK         0.1211 
     12 H12        -2.0399    1.3725    0.2005 H         1 UNK         0.1211 
     13 H13        -1.0182   -1.0784    0.1513 H         1 UNK         0.2618 
     14 H14         5.0719    2.6960   -0.7961 H         1 UNK         0.0300 
     15 H15         5.1046    2.6743    0.9645 H         1 UNK         0.0300 
     16 H16         6.9898    1.3124    0.0319 H         1 UNK         0.0600 
     17 H17         5.8751    0.2774    0.9221 H         1 UNK         0.0600 
     18 H18         5.8423    0.2991   -0.8414 H         1 UNK         0.0600 
@<TRIPOS>BOND
     1    1    2 1    
     2    1    3 2    
     3    1   11 1    
     4    2    4 2    
     5    2   12 1    
     6    3    5 1    
     7    3    6 1    
     8    4    5 1    
     9    4   13 1    
    10    6    7 2    
    11    6    8 1    
    12    8    9 1    
    13    9   10 1    
    14    9   14 1    
    15    9   15 1    
    16   10   16 1    
    17   10   17 1    
    18   10   18 1    
@<TRIPOS>SUBSTRUCTURE
     1 UNK         1 GROUP             0       ****    0 ROOT    
