@<TRIPOS>MOLECULE
title: molecule 1
13   13    1
SMALL
USER_CHARGES


@<TRIPOS>ATOM
      1 F1         -2.2849   -0.6371    0.1270 F         1 UNK        -0.2200 
      2 C2         -1.1095    0.0366    0.1137 C.ar      1 UNK         0.2200 
      3 C3          0.1133   -0.6663    0.0927 C.ar      1 UNK         0.1500 
      4 C4         -1.1113    1.4455    0.1211 C.ar      1 UNK        -0.1150 
      5 O5          0.1238   -2.0315    0.0855 O.3       1 UNK        -0.5850 
      6 C6          1.3316    0.0431    0.0790 C.ar      1 UNK         0.2200 
      7 C7          0.1066    2.1533    0.1074 C.ar      1 UNK        -0.1150 
      8 F8          2.5076   -0.6292    0.0588 F         1 UNK        -0.2200 
      9 C9          1.3280    1.4518    0.0864 C.ar      1 UNK        -0.1150 
     10 H10        -2.0481    1.9828    0.1372 H         1 UNK         0.1150 
     11 H11         1.0003   -2.3853    0.0711 H         1 UNK         0.4350 
     12 H12         0.1038    3.2334    0.1130 H         1 UNK         0.1150 
     13 H13         2.2622    1.9937    0.0759 H         1 UNK         0.1150 
@<TRIPOS>BOND
     1    1    2 1    
     2    2    3 ar   
     3    2    4 ar   
     4    3    5 1    
     5    3    6 ar   
     6    4    7 ar   
     7    4   10 1    
     8    5   11 1    
     9    6    8 1    
    10    6    9 ar   
    11    7    9 ar   
    12    7   12 1    
    13    9   13 1    
@<TRIPOS>SUBSTRUCTURE
     1 UNK         1 GROUP             0       ****    0 ROOT    
