@<TRIPOS>MOLECULE
title: molecule 1
18   18    1
SMALL
USER_CHARGES


@<TRIPOS>ATOM
      1 C1          3.1118    0.7867   -0.2991 C.ar      1 UNK        -0.1150 
      2 C2          1.7297    0.6293   -0.0627 C.ar      1 UNK         0.0594 
      3 C3          3.7344    2.0496   -0.1617 C.ar      1 UNK         0.0900 
      4 C4          0.9553    1.7488    0.3179 C.ar      1 UNK         0.1500 
      5 C5          1.0992   -0.7453   -0.2049 C.3       1 UNK        -0.0654 
      6 C6          2.9460    3.1591    0.2214 C.ar      1 UNK        -0.1150 
      7 N7          5.1810    2.2062   -0.4125 N.pl3     1 UNK         0.6500 
      8 C8          1.5669    3.0084    0.4595 C.ar      1 UNK        -0.1150 
      9 O9         -0.3862    1.6324    0.5461 O.3       1 UNK        -0.5850 
     10 Cl10        0.1828   -0.8764   -1.7275 Cl        1 UNK        -0.2000 
     11 O11         5.8245    1.2144   -0.7401 O.co2     1 UNK        -0.3700 
     12 O12         5.6759    3.3211   -0.2820 O.co2     1 UNK        -0.3700 
     13 H13         3.6952   -0.0749   -0.5894 H         1 UNK         0.1150 
     14 H14         1.8593   -1.5272   -0.2077 H         1 UNK         0.1030 
     15 H15         0.4189   -0.9520    0.6217 H         1 UNK         0.1030 
     16 H16         3.3905    4.1369    0.3357 H         1 UNK         0.1150 
     17 H17         0.9767    3.8655    0.7496 H         1 UNK         0.1150 
     18 H18        -0.7215    0.7705    0.3511 H         1 UNK         0.4350 
@<TRIPOS>BOND
     1    1    2 ar   
     2    1    3 ar   
     3    1   13 1    
     4    2    4 ar   
     5    2    5 1    
     6    3    6 ar   
     7    3    7 1    
     8    4    8 ar   
     9    4    9 1    
    10    5   10 1    
    11    5   14 1    
    12    5   15 1    
    13    6    8 ar   
    14    6   16 1    
    15    7   11 2    
    16    7   12 1    
    17    8   17 1    
    18    9   18 1    
@<TRIPOS>SUBSTRUCTURE
     1 UNK         1 GROUP             0       ****    0 ROOT    
