@<TRIPOS>MOLECULE
title: molecule 1
19   19    1
SMALL
USER_CHARGES


@<TRIPOS>ATOM
      1 C1          2.3986   -2.1645   -0.0660 C.ar      1 UNK         0.0850 
      2 O2          2.0863   -0.8228   -0.1736 O.3       1 UNK        -0.2850 
      3 C3          3.7795   -2.4466   -0.0025 C.ar      1 UNK        -0.1150 
      4 C4          1.4769   -3.2526   -0.0376 C.ar      1 UNK         0.1500 
      5 C5          0.7942   -0.3616    0.1890 C.3       1 UNK         0.1100 
      6 C6          4.2563   -3.7690    0.1133 C.ar      1 UNK        -0.1150 
      7 C7          1.9567   -4.5762    0.0801 C.ar      1 UNK         0.2000 
      8 O8          0.1256   -3.0813   -0.1462 O.3       1 UNK        -0.5850 
      9 C9          5.7068   -4.0512    0.1881 C.2       1 UNK         0.5650 
     10 C10         3.3371   -4.8334    0.1589 C.ar      1 UNK        -0.1150 
     11 Br11        0.7400   -6.0427    0.1245 Br        1 UNK        -0.2000 
     12 O12         6.5845   -3.1900    0.1569 O.2       1 UNK        -0.4500 
     13 H13         4.4790   -1.6233   -0.0361 H         1 UNK         0.1150 
     14 H14         0.8269    0.7202    0.3169 H         1 UNK         0.0300 
     15 H15         0.0642   -0.5716   -0.5929 H         1 UNK         0.0300 
     16 H16         0.4585   -0.7912    1.1339 H         1 UNK         0.0300 
     17 H17        -0.3472   -3.8999   -0.1228 H         1 UNK         0.4350 
     18 H18         5.9529   -5.1098    0.2757 H         1 UNK         0.0000 
     19 H19         3.6825   -5.8537    0.2473 H         1 UNK         0.1150 
@<TRIPOS>BOND
     1    1    2 1    
     2    1    3 ar   
     3    1    4 ar   
     4    2    5 1    
     5    3    6 ar   
     6    3   13 1    
     7    4    7 ar   
     8    4    8 1    
     9    5   14 1    
    10    5   15 1    
    11    5   16 1    
    12    6    9 1    
    13    6   10 ar   
    14    7   10 ar   
    15    7   11 1    
    16    8   17 1    
    17    9   12 2    
    18    9   18 1    
    19   10   19 1    
@<TRIPOS>SUBSTRUCTURE
     1 UNK         1 GROUP             0       ****    0 ROOT    
