@<TRIPOS>MOLECULE
title: molecule 1
17   17    1
SMALL
USER_CHARGES


@<TRIPOS>ATOM
      1 C1          3.9824    0.3260    0.0880 C.ar      1 UNK        -0.1150 
      2 C2          4.0018    1.7340    0.0909 C.ar      1 UNK        -0.1150 
      3 C3          2.7545   -0.3593    0.0892 C.ar      1 UNK        -0.1150 
      4 C4          2.7834    2.4471    0.0957 C.ar      1 UNK        -0.1150 
      5 C5          5.2991    2.4461    0.0892 C.2       1 UNK         0.5650 
      6 C6          1.5367    0.3494    0.0951 C.ar      1 UNK         0.1500 
      7 C7          1.5389    1.7720    0.0999 C.ar      1 UNK         0.0900 
      8 O8          5.4192    3.6703    0.0924 O.2       1 UNK        -0.4500 
      9 O9          0.3807   -0.3801    0.0838 O.3       1 UNK        -0.5850 
     10 N10         0.2895    2.5657    0.1023 N.pl3     1 UNK         0.6500 
     11 O11        -0.7439    2.0468    0.5125 O.co2     1 UNK        -0.3700 
     12 O12         0.3443    3.7231   -0.3008 O.co2     1 UNK        -0.3700 
     13 H13         4.9045   -0.2377    0.0836 H         1 UNK         0.1150 
     14 H14         2.7481   -1.4396    0.0837 H         1 UNK         0.1150 
     15 H15         2.8041    3.5277    0.1013 H         1 UNK         0.1150 
     16 H16         6.1700    1.7901    0.0849 H         1 UNK         0.0000 
     17 H17        -0.3953    0.1585    0.1456 H         1 UNK         0.4350 
@<TRIPOS>BOND
     1    1    2 ar   
     2    1    3 ar   
     3    1   13 1    
     4    2    4 ar   
     5    2    5 1    
     6    3    6 ar   
     7    3   14 1    
     8    4    7 ar   
     9    4   15 1    
    10    5    8 2    
    11    5   16 1    
    12    6    7 ar   
    13    6    9 1    
    14    7   10 1    
    15    9   17 1    
    16   10   11 2    
    17   10   12 1    
@<TRIPOS>SUBSTRUCTURE
     1 UNK         1 GROUP             0       ****    0 ROOT    
