@<TRIPOS>MOLECULE
title: molecule 1
26   26    1
SMALL
USER_CHARGES


@<TRIPOS>ATOM
      1 C1          1.9826    1.0671    1.2846 C.ar      1 UNK        -0.1150 
      2 C2          0.5997    1.2566    1.0950 C.ar      1 UNK        -0.1150 
      3 C3          2.9121    1.6700    0.4095 C.ar      1 UNK        -0.1150 
      4 C4          0.1352    2.0510    0.0283 C.ar      1 UNK         0.1800 
      5 C5          2.4402    2.4654   -0.6583 C.ar      1 UNK        -0.1150 
      6 C6          4.4070    1.4604    0.6202 C.3       1 UNK         0.0550 
      7 C7          1.0576    2.6552   -0.8483 C.ar      1 UNK        -0.1150 
      8 N8         -1.2332    2.2384   -0.1592 N.pl3     1 UNK        -0.9000 
      9 C9          5.1071    2.7898    0.9531 C.3       1 UNK        -0.1800 
     10 C10         5.0428    0.7361   -0.5852 C.3       1 UNK        -0.1200 
     11 C11         6.4580    0.2046   -0.3183 C.3       1 UNK        -0.1800 
     12 H12         2.3243    0.4556    2.1067 H         1 UNK         0.1150 
     13 H13        -0.1006    0.7895    1.7720 H         1 UNK         0.1150 
     14 H14         3.1372    2.9342   -1.3372 H         1 UNK         0.1150 
     15 H15         4.5211    0.8095    1.4883 H         1 UNK         0.0600 
     16 H16         0.7105    3.2659   -1.6689 H         1 UNK         0.1150 
     17 H17        -1.9134    1.8205    0.4592 H         1 UNK         0.3600 
     18 H18        -1.5900    2.8080   -0.9129 H         1 UNK         0.3600 
     19 H19         6.1580    2.6397    1.1984 H         1 UNK         0.0600 
     20 H20         5.0591    3.4901    0.1188 H         1 UNK         0.0600 
     21 H21         4.6412    3.2685    1.8149 H         1 UNK         0.0600 
     22 H22         4.4159   -0.1160   -0.8520 H         1 UNK         0.0600 
     23 H23         5.0530    1.3886   -1.4589 H         1 UNK         0.0600 
     24 H24         6.8248   -0.3595   -1.1760 H         1 UNK         0.0600 
     25 H25         7.1644    1.0139   -0.1350 H         1 UNK         0.0600 
     26 H26         6.4741   -0.4601    0.5457 H         1 UNK         0.0600 
@<TRIPOS>BOND
     1    1    2 ar   
     2    1    3 ar   
     3    1   12 1    
     4    2    4 ar   
     5    2   13 1    
     6    3    5 ar   
     7    3    6 1    
     8    4    7 ar   
     9    4    8 1    
    10    5    7 ar   
    11    5   14 1    
    12    6    9 1    
    13    6   10 1    
    14    6   15 1    
    15    7   16 1    
    16    8   17 1    
    17    8   18 1    
    18    9   19 1    
    19    9   20 1    
    20    9   21 1    
    21   10   11 1    
    22   10   22 1    
    23   10   23 1    
    24   11   24 1    
    25   11   25 1    
    26   11   26 1    
@<TRIPOS>SUBSTRUCTURE
     1 UNK         1 GROUP             0       ****    0 ROOT    
