@<TRIPOS>MOLECULE
title: molecule 1
18   17    1
SMALL
USER_CHARGES


@<TRIPOS>ATOM
      1 C1          4.3423    2.2895    2.0617 C.1       1 UNK         0.0000 
      2 C2          3.1276    2.1704    2.0182 C.1       1 UNK         0.0000 
      3 C3          5.8055    2.4439    2.1010 C.3       1 UNK         0.2050 
      4 C4          1.6650    2.0204    1.9500 C.3       1 UNK         0.2050 
      5 C5          6.3817    3.0289    0.8044 C.3       1 UNK        -0.1800 
      6 O6          6.4398    1.2127    2.3727 O.3       1 UNK        -0.6830 
      7 C7          1.1450    1.8591    0.5152 C.3       1 UNK        -0.1800 
      8 O8          1.0126    3.1155    2.5560 O.3       1 UNK        -0.6830 
      9 H9          6.0199    3.1201    2.9291 H         1 UNK         0.0600 
     10 H10         1.4217    1.1266    2.5252 H         1 UNK         0.0600 
     11 H11         7.4602    3.1692    0.8836 H         1 UNK         0.0600 
     12 H12         6.1950    2.3733   -0.0475 H         1 UNK         0.0600 
     13 H13         5.9419    4.0012    0.5788 H         1 UNK         0.0600 
     14 H14         7.1262    1.3602    3.0055 H         1 UNK         0.4180 
     15 H15         0.0651    1.7081    0.5047 H         1 UNK         0.0600 
     16 H16         1.3617    2.7406   -0.0900 H         1 UNK         0.0600 
     17 H17         1.5996    0.9980    0.0236 H         1 UNK         0.0600 
     18 H18         0.3023    2.7876    3.0864 H         1 UNK         0.4180 
@<TRIPOS>BOND
     1    1    2 3    
     2    1    3 1    
     3    2    4 1    
     4    3    5 1    
     5    3    6 1    
     6    3    9 1    
     7    4    7 1    
     8    4    8 1    
     9    4   10 1    
    10    5   11 1    
    11    5   12 1    
    12    5   13 1    
    13    6   14 1    
    14    7   15 1    
    15    7   16 1    
    16    7   17 1    
    17    8   18 1    
@<TRIPOS>SUBSTRUCTURE
     1 UNK         1 GROUP             0       ****    0 ROOT    
