@<TRIPOS>MOLECULE
title: molecule 1
17   17    1
SMALL
USER_CHARGES


@<TRIPOS>ATOM
      1 C1          3.5619   -0.2092   -0.0516 C.ar      1 UNK        -0.1150 
      2 C2          2.1555   -0.2140   -0.1338 C.ar      1 UNK        -0.1150 
      3 C3          4.2559    1.0036    0.1321 C.ar      1 UNK         0.0350 
      4 C4          1.4274    0.9942   -0.0249 C.ar      1 UNK        -0.1150 
      5 C5          3.5378    2.2123    0.2292 C.ar      1 UNK        -0.1150 
      6 C6          5.7068    1.0082    0.2167 C.1       1 UNK         0.3950 
      7 C7          2.1317    2.2071    0.1465 C.ar      1 UNK        -0.1150 
      8 C8         -0.0711    1.0088   -0.1322 C.2       1 UNK         0.6150 
      9 N9          6.8619    1.0119    0.2840 N.1       1 UNK        -0.4300 
     10 N10        -0.7076   -0.0615    0.3508 N.am      1 UNK        -0.7600 
     11 O11        -0.6716    1.9794   -0.5886 O.2       1 UNK        -0.5000 
     12 H12         4.1030   -1.1411   -0.1343 H         1 UNK         0.1150 
     13 H13         1.6462   -1.1542   -0.2874 H         1 UNK         0.1150 
     14 H14         4.0595    3.1490    0.3654 H         1 UNK         0.1150 
     15 H15         1.5963    3.1430    0.2198 H         1 UNK         0.1150 
     16 H16        -1.7161   -0.0938    0.3239 H         1 UNK         0.3800 
     17 H17        -0.1812   -0.8255    0.7477 H         1 UNK         0.3800 
@<TRIPOS>BOND
     1    1    2 ar   
     2    1    3 ar   
     3    1   12 1    
     4    2    4 ar   
     5    2   13 1    
     6    3    5 ar   
     7    3    6 1    
     8    4    7 ar   
     9    4    8 1    
    10    5    7 ar   
    11    5   14 1    
    12    6    9 3    
    13    7   15 1    
    14    8   10 am   BACKBONE|DICT|INTERRES
    15    8   11 2    
    16   10   16 1    
    17   10   17 1    
@<TRIPOS>SUBSTRUCTURE
     1 UNK         1 GROUP             0       ****    0 ROOT    
