@<TRIPOS>MOLECULE
title: molecule 1
20   19    1
SMALL
USER_CHARGES


@<TRIPOS>ATOM
      1 C1          4.0268    0.1498   -0.1137 C.3       1 UNK        -0.1200 
      2 C2          2.5780    0.1272    0.3690 C.2       1 UNK         0.5100 
      3 C3          4.8165    1.3345    0.4653 C.3       1 UNK        -0.1200 
      4 O4          1.8595    1.1625   -0.0960 O.3       1 UNK        -0.3300 
      5 O5          2.1605   -0.7705    1.1008 O.2       1 UNK        -0.4300 
      6 C6          6.2795    1.3317    0.0086 C.3       1 UNK        -0.0060 
      7 C7          0.4939    1.2854    0.2648 C.3       1 UNK         0.1900 
      8 Cl8         7.1467    2.7225    0.7073 Cl        1 UNK        -0.2000 
      9 C9         -0.0868    2.5484   -0.3759 C.3       1 UNK        -0.1800 
     10 H10         4.0312    0.1919   -1.2032 H         1 UNK         0.0600 
     11 H11         4.5037   -0.7894    0.1682 H         1 UNK         0.0600 
     12 H12         4.3502    2.2742    0.1656 H         1 UNK         0.0600 
     13 H13         4.7793    1.3034    1.5552 H         1 UNK         0.0600 
     14 H14         6.7941    0.4249    0.3278 H         1 UNK         0.1030 
     15 H15         6.3574    1.4028   -1.0766 H         1 UNK         0.1030 
     16 H16        -0.0586    0.4066   -0.0705 H         1 UNK         0.0300 
     17 H17         0.4005    1.3397    1.3504 H         1 UNK         0.0300 
     18 H18        -1.1381    2.6676   -0.1137 H         1 UNK         0.0600 
     19 H19         0.4448    3.4388   -0.0393 H         1 UNK         0.0600 
     20 H20        -0.0162    2.5047   -1.4630 H         1 UNK         0.0600 
@<TRIPOS>BOND
     1    1    2 1    
     2    1    3 1    
     3    1   10 1    
     4    1   11 1    
     5    2    4 1    
     6    2    5 2    
     7    3    6 1    
     8    3   12 1    
     9    3   13 1    
    10    4    7 1    
    11    6    8 1    
    12    6   14 1    
    13    6   15 1    
    14    7    9 1    
    15    7   16 1    
    16    7   17 1    
    17    9   18 1    
    18    9   19 1    
    19    9   20 1    
@<TRIPOS>SUBSTRUCTURE
     1 UNK         1 GROUP             0       ****    0 ROOT    
