@<TRIPOS>MOLECULE
title: molecule 1
16   17    1
SMALL
USER_CHARGES


@<TRIPOS>ATOM
      1 S1         -3.1151    0.9403    0.1731 S.3       1 UNK         0.0328 
      2 C2         -1.4108    1.3016    0.1620 C.2       1 UNK        -0.3255 
      3 C3         -2.7825   -0.7659    0.1618 C.2       1 UNK        -0.3255 
      4 C4         -0.6323    0.1685    0.1502 C.2       1 UNK         0.0473 
      5 C5         -1.4360   -1.0171    0.1502 C.2       1 UNK        -0.0738 
      6 C6          0.8344    0.0959    0.1386 C.2       1 UNK         0.0473 
      7 C7          1.6382    1.2815    0.1386 C.2       1 UNK        -0.0738 
      8 C8          1.6129   -1.0372    0.1268 C.2       1 UNK        -0.3255 
      9 C9          2.9847    1.0303    0.1271 C.2       1 UNK        -0.3255 
     10 S10         3.3173   -0.6760    0.1157 S.3       1 UNK         0.0328 
     11 H11        -1.0905    2.3326    0.1649 H         1 UNK         0.2618 
     12 H12        -3.5955   -1.4770    0.1643 H         1 UNK         0.2618 
     13 H13        -1.0120   -2.0099    0.1418 H         1 UNK         0.1211 
     14 H14         1.2142    2.2743    0.1470 H         1 UNK         0.1211 
     15 H15         1.2927   -2.0682    0.1240 H         1 UNK         0.2618 
     16 H16         3.7977    1.7413    0.1245 H         1 UNK         0.2618 
@<TRIPOS>BOND
     1    1    2 1    
     2    1    3 1    
     3    2    4 2    
     4    2   11 1    
     5    3    5 2    
     6    3   12 1    
     7    4    6 1    
     8    4    5 1    
     9    5   13 1    
    10    6    7 1    
    11    6    8 2    
    12    7    9 2    
    13    7   14 1    
    14    8   10 1    
    15    8   15 1    
    16    9   10 1    
    17    9   16 1    
@<TRIPOS>SUBSTRUCTURE
     1 UNK         1 GROUP             0       ****    0 ROOT    
