@<TRIPOS>MOLECULE
title: molecule 1
10   9    1
SMALL
USER_CHARGES


@<TRIPOS>ATOM
      1 C1          0.1392    0.2432    0.0644 C.3       1 UNK        -0.1800 
      2 C2          1.6045    0.1259    0.0772 C.1       1 UNK         0.0000 
      3 C3          2.8208    0.0188    0.0897 C.1       1 UNK         0.0000 
      4 C4          4.2839   -0.1240    0.1035 C.3       1 UNK        -0.0889 
      5 Br5         5.0480    1.7129    0.1578 Br        1 UNK        -0.2039 
      6 H6         -0.3113   -0.7472    0.1291 H         1 UNK         0.0600 
      7 H7         -0.1907    0.8423    0.9132 H         1 UNK         0.0600 
      8 H8         -0.1844    0.7235   -0.8591 H         1 UNK         0.0600 
      9 H9          4.6094   -0.6712    0.9882 H         1 UNK         0.1464 
     10 H10         4.6308   -0.6274   -0.7989 H         1 UNK         0.1464 
@<TRIPOS>BOND
     1    1    2 1    
     2    1    6 1    
     3    1    7 1    
     4    1    8 1    
     5    2    3 3    
     6    3    4 1    
     7    4    5 1    
     8    4    9 1    
     9    4   10 1    
@<TRIPOS>SUBSTRUCTURE
     1 UNK         1 GROUP             0       ****    0 ROOT    
