@<TRIPOS>MOLECULE
title: molecule 1
24   25    1
SMALL
USER_CHARGES


@<TRIPOS>ATOM
      1 F1          0.7911   -0.1332    2.0481 F         1 UNK        -0.2200 
      2 C2          1.6646    0.0741    1.0327 C.ar      1 UNK         0.2200 
      3 C3          1.3320   -0.2843   -0.2965 C.ar      1 UNK        -0.1150 
      4 C4          2.9225    0.6409    1.3175 C.ar      1 UNK        -0.1150 
      5 C5          0.0178   -0.8929   -0.6375 C.2       1 UNK         0.7000 
      6 C6          2.2832   -0.0913   -1.3232 C.ar      1 UNK        -0.1150 
      7 C7          3.8587    0.8443    0.2862 C.ar      1 UNK        -0.1150 
      8 O8         -0.0438   -1.9057   -1.3354 O.2       1 UNK        -0.4700 
      9 C9         -1.2151   -0.2261   -0.1275 C.ar      1 UNK        -0.1150 
     10 C10         3.5398    0.4749   -1.0339 C.ar      1 UNK        -0.1150 
     11 C11        -2.3823   -0.9948    0.0861 C.ar      1 UNK        -0.1150 
     12 C12        -1.2561    1.1668    0.1214 C.ar      1 UNK        -0.1150 
     13 C13        -3.5628   -0.3870    0.5562 C.ar      1 UNK        -0.1150 
     14 C14        -2.4372    1.7733    0.5915 C.ar      1 UNK        -0.1150 
     15 C15        -3.5903    0.9969    0.8109 C.ar      1 UNK        -0.1150 
     16 H16         3.1712    0.9151    2.3322 H         1 UNK         0.1150 
     17 H17         2.0517   -0.3713   -2.3411 H         1 UNK         0.1150 
     18 H18         4.8227    1.2777    0.5087 H         1 UNK         0.1150 
     19 H19         4.2596    0.6247   -1.8253 H         1 UNK         0.1150 
     20 H20        -2.3800   -2.0586   -0.1043 H         1 UNK         0.1150 
     21 H21        -0.3873    1.7859   -0.0494 H         1 UNK         0.1150 
     22 H22        -4.4481   -0.9835    0.7206 H         1 UNK         0.1150 
     23 H23        -2.4589    2.8364    0.7811 H         1 UNK         0.1150 
     24 H24        -4.4958    1.4627    1.1709 H         1 UNK         0.1150 
@<TRIPOS>BOND
     1    1    2 1    
     2    2    3 ar   
     3    2    4 ar   
     4    3    5 1    
     5    3    6 ar   
     6    4    7 ar   
     7    4   16 1    
     8    5    8 2    
     9    5    9 1    
    10    6   10 ar   
    11    6   17 1    
    12    7   10 ar   
    13    7   18 1    
    14    9   11 ar   
    15    9   12 ar   
    16   10   19 1    
    17   11   13 ar   
    18   11   20 1    
    19   12   14 ar   
    20   12   21 1    
    21   13   15 ar   
    22   13   22 1    
    23   14   15 ar   
    24   14   23 1    
    25   15   24 1    
@<TRIPOS>SUBSTRUCTURE
     1 UNK         1 GROUP             0       ****    0 ROOT    
