@<TRIPOS>MOLECULE
title: molecule 1
21   21    1
SMALL
USER_CHARGES


@<TRIPOS>ATOM
      1 S1         -1.0245    2.7867    1.0424 S.3       1 UNK         0.0328 
      2 C2         -1.1070    1.5313   -0.1608 C.2       1 UNK        -0.3255 
      3 C3          0.6947    2.9434    0.8047 C.2       1 UNK        -0.3255 
      4 C4          0.1251    1.2663   -0.6979 C.2       1 UNK        -0.0738 
      5 C5          1.1661    2.0750   -0.1475 C.2       1 UNK        -0.0677 
      6 C6          2.6054    1.9856   -0.5569 C.3       1 UNK        -0.0050 
      7 C7          3.3917    0.9845    0.3020 C.3       1 UNK        -0.1200 
      8 C8          4.8674    0.8836   -0.1103 C.3       1 UNK        -0.1200 
      9 C9          5.6510   -0.1159    0.7476 C.3       1 UNK        -0.1800 
     10 H10        -2.0533    1.0675   -0.3969 H         1 UNK         0.2618 
     11 H11         1.2536    3.6650    1.3822 H         1 UNK         0.2618 
     12 H12         0.3147    0.5250   -1.4603 H         1 UNK         0.1211 
     13 H13         2.6742    1.6959   -1.6061 H         1 UNK         0.0600 
     14 H14         3.0730    2.9687   -0.4887 H         1 UNK         0.0600 
     15 H15         3.3279    1.2781    1.3507 H         1 UNK         0.0600 
     16 H16         2.9269    0.0004    0.2279 H         1 UNK         0.0600 
     17 H17         4.9357    0.5879   -1.1578 H         1 UNK         0.0600 
     18 H18         5.3365    1.8653   -0.0356 H         1 UNK         0.0600 
     19 H19         6.6933   -0.1656    0.4318 H         1 UNK         0.0600 
     20 H20         5.6356    0.1706    1.7995 H         1 UNK         0.0600 
     21 H21         5.2309   -1.1189    0.6666 H         1 UNK         0.0600 
@<TRIPOS>BOND
     1    1    2 1    
     2    1    3 1    
     3    2    4 2    
     4    2   10 1    
     5    3    5 2    
     6    3   11 1    
     7    4    5 1    
     8    4   12 1    
     9    5    6 1    
    10    6    7 1    
    11    6   13 1    
    12    6   14 1    
    13    7    8 1    
    14    7   15 1    
    15    7   16 1    
    16    8    9 1    
    17    8   17 1    
    18    8   18 1    
    19    9   19 1    
    20    9   20 1    
    21    9   21 1    
@<TRIPOS>SUBSTRUCTURE
     1 UNK         1 GROUP             0       ****    0 ROOT    
