@<TRIPOS>MOLECULE
title: molecule 1
14   14    1
SMALL
USER_CHARGES


@<TRIPOS>ATOM
      1 C1          0.2699    0.6497    0.1074 C.ar      1 UNK        -0.1150 
      2 C2         -0.4380    1.8671    0.1359 C.ar      1 UNK        -0.1150 
      3 C3          1.6777    0.6526    0.0531 C.ar      1 UNK         0.2200 
      4 C4          0.2623    3.0890    0.1100 C.ar      1 UNK        -0.1150 
      5 C5          2.3802    1.8763    0.0270 C.ar      1 UNK         0.1800 
      6 F6          2.3514   -0.5230    0.0264 F         1 UNK        -0.2200 
      7 C7          1.6701    3.0939    0.0557 C.ar      1 UNK        -0.1150 
      8 N8          3.7735    1.8841   -0.0267 N.pl3     1 UNK        -0.9000 
      9 H9         -0.2665   -0.2875    0.1273 H         1 UNK         0.1150 
     10 H10        -1.5173    1.8636    0.1775 H         1 UNK         0.1150 
     11 H11        -0.2802    4.0227    0.1318 H         1 UNK         0.1150 
     12 H12         2.2003    4.0349    0.0359 H         1 UNK         0.1150 
     13 H13         4.3009    2.7445    0.0094 H         1 UNK         0.3600 
     14 H14         4.2994    1.0220    0.0020 H         1 UNK         0.3600 
@<TRIPOS>BOND
     1    1    2 ar   
     2    1    3 ar   
     3    1    9 1    
     4    2    4 ar   
     5    2   10 1    
     6    3    5 ar   
     7    3    6 1    
     8    4    7 ar   
     9    4   11 1    
    10    5    7 ar   
    11    5    8 1    
    12    7   12 1    
    13    8   13 1    
    14    8   14 1    
@<TRIPOS>SUBSTRUCTURE
     1 UNK         1 GROUP             0       ****    0 ROOT    
