@<TRIPOS>MOLECULE
title: molecule 1
17   16    1
SMALL
USER_CHARGES


@<TRIPOS>ATOM
      1 Br1         2.7958   -1.2940    1.2663 Br        1 UNK        -0.2039 
      2 C2          2.6013    0.2315    0.0006 C.3       1 UNK        -0.0889 
      3 C3          1.2545    0.9081    0.2238 C.2       1 UNK         0.5100 
      4 O4          0.2186    0.0860   -0.0066 O.3       1 UNK        -0.3300 
      5 O5          1.1790    2.0878    0.5674 O.2       1 UNK        -0.4300 
      6 C6         -1.1055    0.5638    0.1618 C.3       1 UNK         0.1900 
      7 C7         -2.0946   -0.5693   -0.1328 C.3       1 UNK        -0.1200 
      8 C8         -3.5524   -0.1272    0.0300 C.3       1 UNK        -0.1800 
      9 H9          2.6749   -0.1533   -1.0164 H         1 UNK         0.1464 
     10 H10         3.4199    0.9295    0.1759 H         1 UNK         0.1464 
     11 H11        -1.2408    0.9247    1.1825 H         1 UNK         0.0300 
     12 H12        -1.2828    1.4038   -0.5115 H         1 UNK         0.0300 
     13 H13        -1.9392   -0.9348   -1.1485 H         1 UNK         0.0600 
     14 H14        -1.8955   -1.4097    0.5332 H         1 UNK         0.0600 
     15 H15        -4.2344   -0.9502   -0.1848 H         1 UNK         0.0600 
     16 H16        -3.7495    0.2116    1.0474 H         1 UNK         0.0600 
     17 H17        -3.7937    0.6910   -0.6492 H         1 UNK         0.0600 
@<TRIPOS>BOND
     1    1    2 1    
     2    2    3 1    
     3    2    9 1    
     4    2   10 1    
     5    3    4 1    
     6    3    5 2    
     7    4    6 1    
     8    6    7 1    
     9    6   11 1    
    10    6   12 1    
    11    7    8 1    
    12    7   13 1    
    13    7   14 1    
    14    8   15 1    
    15    8   16 1    
    16    8   17 1    
@<TRIPOS>SUBSTRUCTURE
     1 UNK         1 GROUP             0       ****    0 ROOT    
