@<TRIPOS>MOLECULE
title: molecule 1
13   13    1
SMALL
USER_CHARGES


@<TRIPOS>ATOM
      1 F1          0.7475   -0.4864    0.1470 F         1 UNK        -0.2200 
      2 C2          1.4531    0.6699    0.1259 C.ar      1 UNK         0.2200 
      3 C3          0.7838    1.9118    0.1148 C.ar      1 UNK         0.1500 
      4 C4          2.8613    0.6292    0.1150 C.ar      1 UNK        -0.1150 
      5 O5         -0.5807    1.9568    0.1254 O.3       1 UNK        -0.5850 
      6 C6          1.5263    3.1100    0.0928 C.ar      1 UNK        -0.1150 
      7 C7          3.6021    1.8271    0.0930 C.ar      1 UNK        -0.1150 
      8 C8          2.9344    3.0673    0.0819 C.ar      1 UNK        -0.1150 
      9 H9          3.3727   -0.3220    0.1235 H         1 UNK         0.1150 
     10 H10        -0.9253    2.8363    0.1165 H         1 UNK         0.4350 
     11 H11         1.0206    4.0645    0.0843 H         1 UNK         0.1150 
     12 H12         4.6817    1.7945    0.0846 H         1 UNK         0.1150 
     13 H13         3.5023    3.9859    0.0651 H         1 UNK         0.1150 
@<TRIPOS>BOND
     1    1    2 1    
     2    2    3 ar   
     3    2    4 ar   
     4    3    5 1    
     5    3    6 ar   
     6    4    7 ar   
     7    4    9 1    
     8    5   10 1    
     9    6    8 ar   
    10    6   11 1    
    11    7    8 ar   
    12    7   12 1    
    13    8   13 1    
@<TRIPOS>SUBSTRUCTURE
     1 UNK         1 GROUP             0       ****    0 ROOT    
