@<TRIPOS>MOLECULE
title: molecule 1
12   11    1
SMALL
USER_CHARGES


@<TRIPOS>ATOM
      1 S1          1.3183   -1.1834    0.2854 S.o2      1 UNK         0.9929 
      2 O2          2.1684   -1.6450    1.3937 O.2       1 UNK        -0.5300 
      3 O3          0.8508   -2.1363   -0.7324 O.2       1 UNK        -0.5300 
      4 C4         -0.1385   -0.3127    0.9883 C.3       1 UNK        -0.4765 
      5 C5          2.1978    0.1357   -0.5848 C.2       1 UNK        -0.1075 
      6 C6          3.4563    0.4733   -0.2641 C.2       1 UNK        -0.2300 
      7 H7         -0.7253    0.1258    0.1816 H         1 UNK         0.1787 
      8 H8         -0.7529   -1.0251    1.5381 H         1 UNK         0.1787 
      9 H9          0.1989    0.4728    1.6640 H         1 UNK         0.1787 
     10 H10         1.6389    0.6211   -1.3710 H         1 UNK         0.1150 
     11 H11         3.9681    1.2631   -0.7935 H         1 UNK         0.1150 
     12 H12         3.9933   -0.0298    0.5266 H         1 UNK         0.1150 
@<TRIPOS>BOND
     1    1    2 2    
     2    1    3 2    
     3    1    4 1    
     4    1    5 1    
     5    4    7 1    
     6    4    8 1    
     7    4    9 1    
     8    5    6 2    
     9    5   10 1    
    10    6   11 1    
    11    6   12 1    
@<TRIPOS>SUBSTRUCTURE
     1 UNK         1 GROUP             0       ****    0 ROOT    
