@<TRIPOS>MOLECULE
title: molecule 1
13   13    1
SMALL
USER_CHARGES


@<TRIPOS>ATOM
      1 C1          1.4390    3.1166    0.1389 C.ar      1 UNK        -0.1150 
      2 C2          0.7574    1.8833    0.1228 C.ar      1 UNK         0.1500 
      3 C3          2.8474    3.1442    0.1198 C.ar      1 UNK        -0.1150 
      4 C4          1.4859    0.6771    0.0876 C.ar      1 UNK        -0.1150 
      5 O5         -0.6069    1.8606    0.1414 O.3       1 UNK        -0.5850 
      6 C6          3.5751    1.9385    0.0846 C.ar      1 UNK        -0.1150 
      7 C7          2.8943    0.7053    0.0685 C.ar      1 UNK         0.2200 
      8 F8          3.5939   -0.4535    0.0347 F         1 UNK        -0.2200 
      9 H9          0.8830    4.0425    0.1659 H         1 UNK         0.1150 
     10 H10         3.3691    4.0899    0.1322 H         1 UNK         0.1150 
     11 H11         0.9702   -0.2719    0.0751 H         1 UNK         0.1150 
     12 H12        -0.9667    0.9870    0.1283 H         1 UNK         0.4350 
     13 H13         4.6549    1.9590    0.0700 H         1 UNK         0.1150 
@<TRIPOS>BOND
     1    1    2 ar   
     2    1    3 ar   
     3    1    9 1    
     4    2    4 ar   
     5    2    5 1    
     6    3    6 ar   
     7    3   10 1    
     8    4    7 ar   
     9    4   11 1    
    10    5   12 1    
    11    6    7 ar   
    12    6   13 1    
    13    7    8 1    
@<TRIPOS>SUBSTRUCTURE
     1 UNK         1 GROUP             0       ****    0 ROOT    
