@<TRIPOS>MOLECULE
title: molecule 1
14   14    1
SMALL
USER_CHARGES


@<TRIPOS>ATOM
      1 F1         -0.6934    2.0572    0.1886 F         1 UNK        -0.2200 
      2 C2          0.6596    2.0289    0.1437 C.ar      1 UNK         0.2200 
      3 C3          1.3389    0.7946    0.1514 C.ar      1 UNK        -0.1150 
      4 C4          1.3874    3.2336    0.0893 C.ar      1 UNK        -0.1150 
      5 C5          2.7477    0.7638    0.1047 C.ar      1 UNK         0.1800 
      6 C6          2.7950    3.2043    0.0426 C.ar      1 UNK        -0.1150 
      7 N7          3.4207   -0.4569    0.1124 N.pl3     1 UNK        -0.9000 
      8 C8          3.4749    1.9703    0.0503 C.ar      1 UNK        -0.1150 
      9 H9          0.7739   -0.1251    0.1933 H         1 UNK         0.1150 
     10 H10         0.8659    4.1794    0.0834 H         1 UNK         0.1150 
     11 H11         3.3532    4.1279    0.0009 H         1 UNK         0.1150 
     12 H12         2.9233   -1.3350    0.1509 H         1 UNK         0.3600 
     13 H13         4.4290   -0.5048    0.0796 H         1 UNK         0.3600 
     14 H14         4.5546    1.9553    0.0143 H         1 UNK         0.1150 
@<TRIPOS>BOND
     1    1    2 1    
     2    2    3 ar   
     3    2    4 ar   
     4    3    5 ar   
     5    3    9 1    
     6    4    6 ar   
     7    4   10 1    
     8    5    7 1    
     9    5    8 ar   
    10    6    8 ar   
    11    6   11 1    
    12    7   12 1    
    13    7   13 1    
    14    8   14 1    
@<TRIPOS>SUBSTRUCTURE
     1 UNK         1 GROUP             0       ****    0 ROOT    
