@<TRIPOS>MOLECULE
title: molecule 1
27   26    1
SMALL
USER_CHARGES


@<TRIPOS>ATOM
      1 C1         -1.3254    0.8237   -0.2232 C.3       1 UNK        -0.1800 
      2 C2         -0.1265    1.7497    0.0101 C.3       1 UNK        -0.1200 
      3 C3          1.2076    0.9904    0.0424 C.3       1 UNK        -0.1200 
      4 C4          2.4089    1.9180    0.2761 C.3       1 UNK        -0.1200 
      5 C5          3.7431    1.1585    0.3083 C.3       1 UNK        -0.1200 
      6 C6          4.9431    2.0868    0.5416 C.3       1 UNK        -0.1200 
      7 C7          6.2512    1.3234    0.5784 C.2       1 UNK        -0.1150 
      8 C8          7.2806    1.5509   -0.2612 C.2       1 UNK        -0.1150 
      9 C9          8.5321    0.8087   -0.2132 C.2       1 UNK         0.5200 
     10 O10         8.5741   -0.1470    0.7616 O.3       1 UNK        -0.5300 
     11 O11         9.4788    1.0062   -0.9706 O.2       1 UNK        -0.4400 
     12 H12        -2.2564    1.3907   -0.2411 H         1 UNK         0.0600 
     13 H13        -1.2380    0.2981   -1.1744 H         1 UNK         0.0600 
     14 H14        -1.4060    0.0769    0.5671 H         1 UNK         0.0600 
     15 H15        -0.0989    2.5054   -0.7758 H         1 UNK         0.0600 
     16 H16        -0.2653    2.2864    0.9493 H         1 UNK         0.0600 
     17 H17         1.1751    0.2342    0.8279 H         1 UNK         0.0600 
     18 H18         1.3416    0.4533   -0.8975 H         1 UNK         0.0600 
     19 H19         2.4412    2.6741   -0.5094 H         1 UNK         0.0600 
     20 H20         2.2749    2.4550    1.2160 H         1 UNK         0.0600 
     21 H21         3.7105    0.4019    1.0935 H         1 UNK         0.0600 
     22 H22         3.8779    0.6221   -0.6319 H         1 UNK         0.0600 
     23 H23         4.9832    2.8481   -0.2387 H         1 UNK         0.0600 
     24 H24         4.8289    2.6137    1.4894 H         1 UNK         0.0600 
     25 H25         6.3121    0.5624    1.3432 H         1 UNK         0.1150 
     26 H26         7.1801    2.3215   -1.0117 H         1 UNK         0.1150 
     27 H27         9.3968   -0.6112    0.7681 H         1 UNK         0.4500 
@<TRIPOS>BOND
     1    1    2 1    
     2    1   12 1    
     3    1   13 1    
     4    1   14 1    
     5    2    3 1    
     6    2   15 1    
     7    2   16 1    
     8    3    4 1    
     9    3   17 1    
    10    3   18 1    
    11    4    5 1    
    12    4   19 1    
    13    4   20 1    
    14    5    6 1    
    15    5   21 1    
    16    5   22 1    
    17    6    7 1    
    18    6   23 1    
    19    6   24 1    
    20    7    8 2    
    21    7   25 1    
    22    8    9 1    
    23    8   26 1    
    24    9   10 1    
    25    9   11 2    
    26   10   27 1    
@<TRIPOS>SUBSTRUCTURE
     1 UNK         1 GROUP             0       ****    0 ROOT    
