@<TRIPOS>MOLECULE
title: molecule 1
24   24    1
SMALL
USER_CHARGES


@<TRIPOS>ATOM
      1 O1         -2.2858   -0.7510   -0.6194 O.3       1 UNK        -0.1900 
      2 C2         -1.2759   -0.0248   -0.0616 C.2       1 UNK         0.0080 
      3 C3         -3.4505   -0.1534   -0.2475 C.2       1 UNK        -0.0190 
      4 C4          0.1074   -0.5144   -0.3476 C.3       1 UNK        -0.0050 
      5 C5         -1.7896    1.0217    0.6562 C.2       1 UNK        -0.1540 
      6 C6         -3.2042    0.9380    0.5353 C.2       1 UNK        -0.1540 
      7 C7          1.2177    0.3296    0.2979 C.3       1 UNK        -0.1200 
      8 C8          2.6230   -0.2034   -0.0178 C.3       1 UNK        -0.1200 
      9 C9          3.7322    0.6400    0.6272 C.3       1 UNK        -0.1200 
     10 C10         5.1346    0.1081    0.3122 C.3       1 UNK        -0.1800 
     11 H11        -4.3492   -0.6232   -0.6191 H         1 UNK         0.1420 
     12 H12         0.1938   -1.5463   -0.0056 H         1 UNK         0.0600 
     13 H13         0.2559   -0.5403   -1.4277 H         1 UNK         0.0600 
     14 H14        -1.2182    1.7579    1.2020 H         1 UNK         0.1260 
     15 H15        -3.9470    1.5929    0.9661 H         1 UNK         0.1260 
     16 H16         1.1370    1.3610   -0.0478 H         1 UNK         0.0600 
     17 H17         1.0747    0.3517    1.3791 H         1 UNK         0.0600 
     18 H18         2.7056   -1.2350    0.3268 H         1 UNK         0.0600 
     19 H19         2.7678   -0.2266   -1.0987 H         1 UNK         0.0600 
     20 H20         3.6545    1.6720    0.2833 H         1 UNK         0.0600 
     21 H21         3.5923    0.6638    1.7085 H         1 UNK         0.0600 
     22 H22         5.8993    0.7263    0.7829 H         1 UNK         0.0600 
     23 H23         5.2605   -0.9116    0.6771 H         1 UNK         0.0600 
     24 H24         5.3233    0.1062   -0.7617 H         1 UNK         0.0600 
@<TRIPOS>BOND
     1    1    2 1    
     2    1    3 1    
     3    2    4 1    
     4    2    5 2    
     5    3    6 2    
     6    3   11 1    
     7    4    7 1    
     8    4   12 1    
     9    4   13 1    
    10    5    6 1    
    11    5   14 1    
    12    6   15 1    
    13    7    8 1    
    14    7   16 1    
    15    7   17 1    
    16    8    9 1    
    17    8   18 1    
    18    8   19 1    
    19    9   10 1    
    20    9   20 1    
    21    9   21 1    
    22   10   22 1    
    23   10   23 1    
    24   10   24 1    
@<TRIPOS>SUBSTRUCTURE
     1 UNK         1 GROUP             0       ****    0 ROOT    
