@<TRIPOS>MOLECULE
title: molecule 1
18   17    1
SMALL
USER_CHARGES


@<TRIPOS>ATOM
      1 C1          3.0110    1.7464    1.2416 C.3       1 UNK        -0.1200 
      2 C2          4.3481    1.9430    1.9669 C.2       1 UNK         0.4700 
      3 C3          1.9704    0.9624    2.0603 C.3       1 UNK        -0.1200 
      4 C4          5.4486    2.7160    1.2243 C.2       1 UNK         0.4700 
      5 O5          4.5487    1.5051    3.1004 O.2       1 UNK        -0.4700 
      6 C6          0.6505    0.7875    1.3023 C.3       1 UNK        -0.1800 
      7 C7          6.7834    2.9183    1.9350 C.3       1 UNK        -0.1800 
      8 O8          5.2581    3.1574    0.0918 O.2       1 UNK        -0.4700 
      9 H9          3.2032    1.2293    0.3011 H         1 UNK         0.0600 
     10 H10         2.6119    2.7281    0.9848 H         1 UNK         0.0600 
     11 H11         2.3656   -0.0209    2.3191 H         1 UNK         0.0600 
     12 H12         1.7748    1.4767    3.0023 H         1 UNK         0.0600 
     13 H13        -0.0704    0.2301    1.9007 H         1 UNK         0.0600 
     14 H14         0.2055    1.7527    1.0589 H         1 UNK         0.0600 
     15 H15         0.8013    0.2425    0.3700 H         1 UNK         0.0600 
     16 H16         7.4723    3.4786    1.3026 H         1 UNK         0.0600 
     17 H17         6.6390    3.4717    2.8631 H         1 UNK         0.0600 
     18 H18         7.2371    1.9558    2.1715 H         1 UNK         0.0600 
@<TRIPOS>BOND
     1    1    2 1    
     2    1    3 1    
     3    1    9 1    
     4    1   10 1    
     5    2    4 1    
     6    2    5 2    
     7    3    6 1    
     8    3   11 1    
     9    3   12 1    
    10    4    7 1    
    11    4    8 2    
    12    6   13 1    
    13    6   14 1    
    14    6   15 1    
    15    7   16 1    
    16    7   17 1    
    17    7   18 1    
@<TRIPOS>SUBSTRUCTURE
     1 UNK         1 GROUP             0       ****    0 ROOT    
