@<TRIPOS>MOLECULE
title: molecule 1
17   17    1
SMALL
USER_CHARGES


@<TRIPOS>ATOM
      1 Cl1         1.2055   -2.4326   -0.1144 Cl        1 UNK        -0.1800 
      2 C2          0.4175   -0.8987    0.0159 C.ar      1 UNK         0.6650 
      3 N3         -0.9332   -0.9191   -0.0082 N.ar      1 UNK        -0.6780 
      4 C4          1.1602    0.3066    0.1070 C.ar      1 UNK        -0.2020 
      5 C5         -1.6160    0.2431    0.0488 C.ar      1 UNK         0.5716 
      6 N6          2.6307    0.3334    0.1434 N.pl3     1 UNK         0.6500 
      7 C7          0.4425    1.5200    0.1552 C.ar      1 UNK         0.2270 
      8 O8         -2.9826    0.0740    0.0179 O.3       1 UNK        -0.2866 
      9 C9         -0.9636    1.4960    0.1284 C.ar      1 UNK        -0.4470 
     10 O10         3.2123   -0.4607    0.8743 O.co2     1 UNK        -0.3700 
     11 O11         3.1968    1.1815   -0.5376 O.co2     1 UNK        -0.3700 
     12 C12        -3.7962    1.2363    0.0726 C.3       1 UNK         0.1100 
     13 H13         0.9630    2.4644    0.2205 H         1 UNK         0.0650 
     14 H14        -1.5062    2.4282    0.1709 H         1 UNK         0.1550 
     15 H15        -4.8454    0.9430    0.0409 H         1 UNK         0.0300 
     16 H16        -3.6367    1.7914    0.9980 H         1 UNK         0.0300 
     17 H17        -3.6113    1.8926   -0.7789 H         1 UNK         0.0300 
@<TRIPOS>BOND
     1    1    2 1    
     2    2    3 ar   
     3    2    4 ar   
     4    3    5 ar   
     5    4    6 1    
     6    4    7 ar   
     7    5    8 1    
     8    5    9 ar   
     9    6   10 1    
    10    6   11 2    
    11    7    9 ar   
    12    7   13 1    
    13    8   12 1    
    14    9   14 1    
    15   12   15 1    
    16   12   16 1    
    17   12   17 1    
@<TRIPOS>SUBSTRUCTURE
     1 UNK         1 GROUP             0       ****    0 ROOT    
