@<TRIPOS>MOLECULE
title: molecule 1
18   17    1
SMALL
USER_CHARGES


@<TRIPOS>ATOM
      1 C1         -0.8727    0.9917   -0.1258 C.3       1 UNK        -0.0695 
      2 C2          0.4385    1.7912   -0.1749 C.3       1 UNK        -0.0530 
      3 C3          1.6735    0.9624    0.2031 C.2       1 UNK         0.4700 
      4 Br4         0.2961    3.3228    1.0915 Br        1 UNK        -0.2039 
      5 C5          3.0595    1.5353   -0.1464 C.2       1 UNK         0.4700 
      6 O6          1.5744   -0.1287    0.7655 O.2       1 UNK        -0.4700 
      7 C7          4.2959    0.7266    0.2671 C.3       1 UNK        -0.0530 
      8 O8          3.1585    2.6011   -0.7544 O.2       1 UNK        -0.4700 
      9 C9          4.5937   -0.4149   -0.7156 C.3       1 UNK        -0.0695 
     10 Br10        5.8878    1.9255    0.3476 Br        1 UNK        -0.2039 
     11 H11        -1.7165    1.6176   -0.4165 H         1 UNK         0.0600 
     12 H12        -0.8438    0.1409   -0.8074 H         1 UNK         0.0600 
     13 H13        -1.0740    0.6133    0.8772 H         1 UNK         0.0600 
     14 H14         0.5803    2.2085   -1.1723 H         1 UNK         0.1464 
     15 H15         4.1451    0.3297    1.2714 H         1 UNK         0.1464 
     16 H16         5.4767   -0.9720   -0.4023 H         1 UNK         0.0600 
     17 H17         3.7650   -1.1212   -0.7739 H         1 UNK         0.0600 
     18 H18         4.7821   -0.0344   -1.7203 H         1 UNK         0.0600 
@<TRIPOS>BOND
     1    1    2 1    
     2    1   11 1    
     3    1   12 1    
     4    1   13 1    
     5    2    3 1    
     6    2    4 1    
     7    2   14 1    
     8    3    5 1    
     9    3    6 2    
    10    5    7 1    
    11    5    8 2    
    12    7    9 1    
    13    7   10 1    
    14    7   15 1    
    15    9   16 1    
    16    9   17 1    
    17    9   18 1    
@<TRIPOS>SUBSTRUCTURE
     1 UNK         1 GROUP             0       ****    0 ROOT    
