@<TRIPOS>MOLECULE
title: molecule 1
15   15    1
SMALL
USER_CHARGES


@<TRIPOS>ATOM
      1 C1          2.7248    0.6367    0.1134 C.ar      1 UNK         0.2200 
      2 C2          1.3161    0.6732    0.1149 C.ar      1 UNK        -0.1150 
      3 C3          3.4733    1.8419    0.0931 C.ar      1 UNK         0.0900 
      4 F4          3.3387   -0.5712    0.1205 F         1 UNK        -0.2200 
      5 C5          0.6363    1.9053    0.0940 C.ar      1 UNK         0.1500 
      6 C6          2.7758    3.0734    0.0689 C.ar      1 UNK        -0.1150 
      7 N7          4.9511    1.8359    0.0945 N.pl3     1 UNK         0.6500 
      8 C8          1.3683    3.1060    0.0702 C.ar      1 UNK        -0.1150 
      9 O9         -0.7277    1.9389    0.0953 O.3       1 UNK        -0.5850 
     10 O10         5.5387    0.8189    0.4464 O.co2     1 UNK        -0.3700 
     11 O11         5.5299    2.8618   -0.2491 O.co2     1 UNK        -0.3700 
     12 H12         0.7604   -0.2530    0.1296 H         1 UNK         0.1150 
     13 H13         3.3163    4.0086    0.0542 H         1 UNK         0.1150 
     14 H14         0.8520    4.0549    0.0537 H         1 UNK         0.1150 
     15 H15        -1.1243    1.0813    0.1118 H         1 UNK         0.4350 
@<TRIPOS>BOND
     1    1    2 ar   
     2    1    3 ar   
     3    1    4 1    
     4    2    5 ar   
     5    2   12 1    
     6    3    6 ar   
     7    3    7 1    
     8    5    8 ar   
     9    5    9 1    
    10    6    8 ar   
    11    6   13 1    
    12    7   10 2    
    13    7   11 1    
    14    8   14 1    
    15    9   15 1    
@<TRIPOS>SUBSTRUCTURE
     1 UNK         1 GROUP             0       ****    0 ROOT    
