@<TRIPOS>MOLECULE
title: molecule 1
18   18    1
SMALL
USER_CHARGES


@<TRIPOS>ATOM
      1 F1         -2.7943    1.6396    0.1397 F         1 UNK        -0.2200 
      2 C2         -1.7833    0.7392    0.1249 C.ar      1 UNK         0.2200 
      3 C3         -0.4477    1.1829    0.1053 C.ar      1 UNK        -0.1150 
      4 C4         -2.0687   -0.6362    0.1290 C.ar      1 UNK        -0.1150 
      5 C5          0.6297    0.2609    0.0895 C.ar      1 UNK        -0.1150 
      6 C6         -1.0151   -1.5663    0.1135 C.ar      1 UNK        -0.1150 
      7 C7          0.3254   -1.1306    0.0939 C.ar      1 UNK         0.1500 
      8 C8          2.0440    0.7616    0.0688 C.2       1 UNK         0.5850 
      9 O9          1.2975   -2.0918    0.0796 O.3       1 UNK        -0.5850 
     10 O10         3.0342    0.0304    0.0542 O.2       1 UNK        -0.4700 
     11 C11         2.2690    2.2732    0.0655 C.3       1 UNK        -0.1800 
     12 H12        -0.2785    2.2489    0.1029 H         1 UNK         0.1150 
     13 H13        -3.0934   -0.9772    0.1440 H         1 UNK         0.1150 
     14 H14        -1.2379   -2.6234    0.1167 H         1 UNK         0.1150 
     15 H15         2.1698   -1.7224    0.0668 H         1 UNK         0.4350 
     16 H16         3.3356    2.4988    0.0499 H         1 UNK         0.0600 
     17 H17         1.8139    2.7267   -0.8151 H         1 UNK         0.0600 
     18 H18         1.8399    2.7266    0.9591 H         1 UNK         0.0600 
@<TRIPOS>BOND
     1    1    2 1    
     2    2    3 ar   
     3    2    4 ar   
     4    3    5 ar   
     5    3   12 1    
     6    4    6 ar   
     7    4   13 1    
     8    5    7 ar   
     9    5    8 1    
    10    6    7 ar   
    11    6   14 1    
    12    7    9 1    
    13    8   10 2    
    14    8   11 1    
    15    9   15 1    
    16   11   16 1    
    17   11   17 1    
    18   11   18 1    
@<TRIPOS>SUBSTRUCTURE
     1 UNK         1 GROUP             0       ****    0 ROOT    
