@<TRIPOS>MOLECULE
title: molecule 1
20   20    1
SMALL
USER_CHARGES


@<TRIPOS>ATOM
      1 C1          3.1882    1.6826    0.1411 C.ar      1 UNK        -0.1150 
      2 C2          3.0695    3.0913    0.1773 C.ar      1 UNK         0.0788 
      3 C3          2.0379    0.8706    0.0675 C.ar      1 UNK        -0.1150 
      4 C4          1.7872    3.6764    0.1366 C.ar      1 UNK        -0.1150 
      5 N5          4.1863    3.9219    0.2522 N.2       1 UNK        -0.3151 
      6 C6          0.7614    1.4665    0.0252 C.ar      1 UNK        -0.1150 
      7 C7          2.1747   -0.6374    0.0276 C.3       1 UNK        -0.0650 
      8 C8          0.6334    2.8697    0.0585 C.ar      1 UNK        -0.1150 
      9 C9          5.3952    3.7655    0.3025 C.1       1 UNK         0.2438 
     10 C10        -0.7392    3.5090    0.0170 C.3       1 UNK        -0.0650 
     11 S11         6.9577    3.4988    0.4628 S.2       1 UNK        -0.0075 
     12 H12         4.1631    1.2178    0.1702 H         1 UNK         0.1150 
     13 H13         1.6884    4.7521    0.1651 H         1 UNK         0.1150 
     14 H14        -0.1214    0.8463   -0.0330 H         1 UNK         0.1150 
     15 H15         1.2982   -1.1199    0.4613 H         1 UNK         0.0600 
     16 H16         2.2803   -0.9779   -1.0025 H         1 UNK         0.0600 
     17 H17         3.0508   -0.9630    0.5893 H         1 UNK         0.0600 
     18 H18        -0.6991    4.4852   -0.4672 H         1 UNK         0.0600 
     19 H19        -1.4419    2.8865   -0.5378 H         1 UNK         0.0600 
     20 H20        -1.1223    3.6422    1.0288 H         1 UNK         0.0600 
@<TRIPOS>BOND
     1    1    2 ar   
     2    1    3 ar   
     3    1   12 1    
     4    2    4 ar   
     5    2    5 1    
     6    3    6 ar   
     7    3    7 1    
     8    4    8 ar   
     9    4   13 1    
    10    5    9 2    
    11    6    8 ar   
    12    6   14 1    
    13    7   15 1    
    14    7   16 1    
    15    7   17 1    
    16    8   10 1    
    17    9   11 2    
    18   10   18 1    
    19   10   19 1    
    20   10   20 1    
@<TRIPOS>SUBSTRUCTURE
     1 UNK         1 GROUP             0       ****    0 ROOT    
