@<TRIPOS>MOLECULE
title: molecule 1
23   22    1
SMALL
USER_CHARGES


@<TRIPOS>ATOM
      1 C1          3.8263    0.8182    0.1182 C.3       1 UNK        -0.1200 
      2 C2          2.5791   -0.0779    0.1075 C.3       1 UNK        -0.1200 
      3 C3          5.1326    0.0111    0.1314 C.3       1 UNK        -0.1200 
      4 C4          1.2729    0.7287    0.0944 C.3       1 UNK        -0.1200 
      5 C5          6.3774    0.9081    0.1417 C.3       1 UNK         0.1450 
      6 C6          0.0316   -0.1736    0.0825 C.3       1 UNK         0.0600 
      7 O7          7.5410    0.1095    0.1540 O.3       1 UNK        -0.6830 
      8 N8         -1.1703    0.6366    0.0683 N.3       1 UNK        -0.9000 
      9 H9          3.8120    1.4698   -0.7564 H         1 UNK         0.0600 
     10 H10         3.7956    1.4719    0.9908 H         1 UNK         0.0600 
     11 H11         2.6095   -0.7314   -0.7653 H         1 UNK         0.0600 
     12 H12         2.5932   -0.7299    0.9818 H         1 UNK         0.0600 
     13 H13         5.1477   -0.6403    1.0064 H         1 UNK         0.0600 
     14 H14         5.1639   -0.6428   -0.7412 H         1 UNK         0.0600 
     15 H15         1.2429    1.3819    0.9677 H         1 UNK         0.0600 
     16 H16         1.2589    1.3800   -0.7808 H         1 UNK         0.0600 
     17 H17         6.3962    1.5513   -0.7387 H         1 UNK         0.0600 
     18 H18         6.3797    1.5542    1.0202 H         1 UNK         0.0600 
     19 H19         0.0359   -0.8199   -0.7957 H         1 UNK         0.0600 
     20 H20         0.0180   -0.8172    0.9627 H         1 UNK         0.0600 
     21 H21         8.2967    0.6771    0.1597 H         1 UNK         0.4180 
     22 H22        -1.9849    0.0400    0.0998 H         1 UNK         0.3600 
     23 H23        -1.2037    1.2136    0.8967 H         1 UNK         0.3600 
@<TRIPOS>BOND
     1    1    2 1    
     2    1    3 1    
     3    1    9 1    
     4    1   10 1    
     5    2    4 1    
     6    2   11 1    
     7    2   12 1    
     8    3    5 1    
     9    3   13 1    
    10    3   14 1    
    11    4    6 1    
    12    4   15 1    
    13    4   16 1    
    14    5    7 1    
    15    5   17 1    
    16    5   18 1    
    17    6    8 1    
    18    6   19 1    
    19    6   20 1    
    20    7   21 1    
    21    8   22 1    
    22    8   23 1    
@<TRIPOS>SUBSTRUCTURE
     1 UNK         1 GROUP             0       ****    0 ROOT    
