@<TRIPOS>MOLECULE
title: molecule 1
29   28    1
SMALL
USER_CHARGES


@<TRIPOS>ATOM
      1 C1         10.7541    0.3345    0.1899 C.3       1 UNK         0.1450 
      2 O2         11.9162   -0.4478    0.3566 O.3       1 UNK        -0.6830 
      3 C3          9.5365   -0.4892    0.1662 C.1       1 UNK         0.0000 
      4 C4          8.5177   -1.1624    0.1456 C.1       1 UNK         0.0000 
      5 C5          7.2826   -1.9627    0.1254 C.3       1 UNK        -0.1200 
      6 C6          6.0043   -1.1102    0.1323 C.3       1 UNK        -0.1200 
      7 C7          4.7297   -1.9664    0.1110 C.3       1 UNK        -0.1200 
      8 C8          3.4493   -1.1186    0.1178 C.3       1 UNK        -0.1200 
      9 C9          2.1748   -1.9750    0.0966 C.3       1 UNK        -0.1200 
     10 C10         0.8944   -1.1275    0.1033 C.3       1 UNK        -0.1200 
     11 C11        -0.3775   -1.9825    0.0822 C.3       1 UNK        -0.1800 
     12 H12        10.6745    1.0542    1.0049 H         1 UNK         0.0600 
     13 H13        10.8151    0.8915   -0.7453 H         1 UNK         0.0600 
     14 H14        12.4993   -0.2806   -0.3682 H         1 UNK         0.4180 
     15 H15         7.3136   -2.5950   -0.7624 H         1 UNK         0.0600 
     16 H16         7.3038   -2.6239    0.9922 H         1 UNK         0.0600 
     17 H17         5.9942   -0.4715    1.0171 H         1 UNK         0.0600 
     18 H18         6.0040   -0.4426   -0.7308 H         1 UNK         0.0600 
     19 H19         4.7371   -2.6050   -0.7732 H         1 UNK         0.0600 
     20 H20         4.7272   -2.6338    0.9738 H         1 UNK         0.0600 
     21 H21         3.4421   -0.4799    1.0020 H         1 UNK         0.0600 
     22 H22         3.4519   -0.4512   -0.7449 H         1 UNK         0.0600 
     23 H23         2.1818   -2.6138   -0.7876 H         1 UNK         0.0600 
     24 H24         2.1720   -2.6424    0.9594 H         1 UNK         0.0600 
     25 H25         0.8826   -0.4889    0.9873 H         1 UNK         0.0600 
     26 H26         0.8923   -0.4603   -0.7594 H         1 UNK         0.0600 
     27 H27        -1.2682   -1.3538    0.0875 H         1 UNK         0.0600 
     28 H28        -0.4172   -2.6077   -0.8101 H         1 UNK         0.0600 
     29 H29        -0.4270   -2.6366    0.9532 H         1 UNK         0.0600 
@<TRIPOS>BOND
     1    1    2 1    
     2    1    3 1    
     3    1   12 1    
     4    1   13 1    
     5    2   14 1    
     6    3    4 3    
     7    4    5 1    
     8    5    6 1    
     9    5   15 1    
    10    5   16 1    
    11    6    7 1    
    12    6   17 1    
    13    6   18 1    
    14    7    8 1    
    15    7   19 1    
    16    7   20 1    
    17    8    9 1    
    18    8   21 1    
    19    8   22 1    
    20    9   10 1    
    21    9   23 1    
    22    9   24 1    
    23   10   11 1    
    24   10   25 1    
    25   10   26 1    
    26   11   27 1    
    27   11   28 1    
    28   11   29 1    
@<TRIPOS>SUBSTRUCTURE
     1 UNK         1 GROUP             0       ****    0 ROOT    
