@<TRIPOS>MOLECULE
title: molecule 1
15   15    1
SMALL
USER_CHARGES


@<TRIPOS>ATOM
      1 O1         -2.3113   -0.3865    0.6812 O.co2     1 UNK        -0.3700 
      2 N2         -1.6670    0.5019    0.1333 N.pl3     1 UNK         0.6500 
      3 O3         -2.1800    1.4869   -0.3874 O.co2     1 UNK        -0.3700 
      4 C4         -0.1929    0.4108    0.1162 C.ar      1 UNK        -0.2020 
      5 C5          0.5131   -0.8234    0.0592 C.ar      1 UNK         0.6850 
      6 C6          0.5751    1.5973    0.1473 C.ar      1 UNK         0.2270 
      7 N7          1.8613   -0.9001    0.0438 N.ar      1 UNK        -0.6780 
      8 N8         -0.1333   -2.0569   -0.0093 N.pl3     1 UNK        -0.9200 
      9 C9          1.9797    1.5172    0.1314 C.ar      1 UNK        -0.4470 
     10 C10         2.5740    0.2440    0.0811 C.ar      1 UNK         0.4730 
     11 H11         0.0967    2.5649    0.1895 H         1 UNK         0.0650 
     12 H12         0.3912   -2.9195   -0.0040 H         1 UNK         0.3600 
     13 H13        -1.1382   -2.1267    0.0712 H         1 UNK         0.3600 
     14 H14         2.5865    2.4102    0.1582 H         1 UNK         0.1550 
     15 H15         3.6490    0.1412    0.0680 H         1 UNK         0.0120 
@<TRIPOS>BOND
     1    1    2 1    
     2    2    3 2    
     3    2    4 1    
     4    4    5 ar   
     5    4    6 ar   
     6    5    7 ar   
     7    5    8 1    
     8    6    9 ar   
     9    6   11 1    
    10    7   10 ar   
    11    8   12 1    
    12    8   13 1    
    13    9   10 ar   
    14    9   14 1    
    15   10   15 1    
@<TRIPOS>SUBSTRUCTURE
     1 UNK         1 GROUP             0       ****    0 ROOT    
