@<TRIPOS>MOLECULE
title: molecule 1
24   23    1
SMALL
USER_CHARGES


@<TRIPOS>ATOM
      1 O1          0.9613   -0.1892    0.0056 O.3       1 UNK        -0.3300 
      2 C2         -0.2450    0.5541    0.0731 C.3       1 UNK         0.1900 
      3 C3          2.1410    0.4400    0.1378 C.2       1 UNK         0.5100 
      4 C4         -1.4365   -0.3965   -0.1101 C.3       1 UNK        -0.1200 
      5 O5          2.2710    1.6524    0.3195 O.2       1 UNK        -0.4300 
      6 C6          3.2590   -0.5107    0.0369 C.2       1 UNK        -0.1150 
      7 C7         -2.8028    0.3171   -0.1230 C.3       1 UNK        -0.0600 
      8 C8          4.5378   -0.1111    0.1389 C.2       1 UNK        -0.2300 
      9 C9         -3.9171   -0.6471   -0.5578 C.3       1 UNK        -0.1800 
     10 C10        -3.1433    0.9529    1.2354 C.3       1 UNK        -0.1800 
     11 H11        -0.3037    1.0619    1.0363 H         1 UNK         0.0300 
     12 H12        -0.2502    1.3185   -0.7052 H         1 UNK         0.0300 
     13 H13        -1.3053   -0.9297   -1.0527 H         1 UNK         0.0600 
     14 H14        -1.4235   -1.1565    0.6722 H         1 UNK         0.0600 
     15 H15         3.0306   -1.5547   -0.1235 H         1 UNK         0.1150 
     16 H16        -2.7590    1.1158   -0.8648 H         1 UNK         0.0600 
     17 H17         5.3442   -0.8254    0.0619 H         1 UNK         0.1150 
     18 H18         4.8037    0.9242    0.2993 H         1 UNK         0.1150 
     19 H19        -4.8803   -0.1385   -0.6092 H         1 UNK         0.0600 
     20 H20        -3.7154   -1.0642   -1.5448 H         1 UNK         0.0600 
     21 H21        -4.0169   -1.4785    0.1408 H         1 UNK         0.0600 
     22 H22        -4.1198    1.4373    1.2066 H         1 UNK         0.0600 
     23 H23        -3.1686    0.2046    2.0282 H         1 UNK         0.0600 
     24 H24        -2.4166    1.7143    1.5178 H         1 UNK         0.0600 
@<TRIPOS>BOND
     1    1    2 1    
     2    1    3 1    
     3    2    4 1    
     4    2   11 1    
     5    2   12 1    
     6    3    5 2    
     7    3    6 1    
     8    4    7 1    
     9    4   13 1    
    10    4   14 1    
    11    6    8 2    
    12    6   15 1    
    13    7    9 1    
    14    7   10 1    
    15    7   16 1    
    16    8   17 1    
    17    8   18 1    
    18    9   19 1    
    19    9   20 1    
    20    9   21 1    
    21   10   22 1    
    22   10   23 1    
    23   10   24 1    
@<TRIPOS>SUBSTRUCTURE
     1 UNK         1 GROUP             0       ****    0 ROOT    
