@<TRIPOS>MOLECULE
title: molecule 1
22   21    1
SMALL
USER_CHARGES


@<TRIPOS>ATOM
      1 C1          4.0948    0.0828    0.0661 C.3       1 UNK         0.0250 
      2 S2          2.7076    1.3064   -0.0744 S.3       1 UNK         0.1700 
      3 C3          5.4190    0.8501   -0.0407 C.3       1 UNK        -0.1200 
      4 C4          1.3230    0.0793    0.0608 C.3       1 UNK         0.0250 
      5 O5          2.7041    2.1226    1.2195 O.2       1 UNK        -0.4600 
      6 C6          6.6398   -0.0704    0.0624 C.3       1 UNK        -0.1800 
      7 C7         -0.0027    0.8431   -0.0510 C.3       1 UNK        -0.1200 
      8 C8         -1.2215   -0.0805    0.0474 C.3       1 UNK        -0.1800 
      9 H9          4.0091   -0.6589   -0.7285 H         1 UNK         0.0600 
     10 H10         4.0238   -0.4386    1.0211 H         1 UNK         0.0600 
     11 H11         5.4547    1.3898   -0.9877 H         1 UNK         0.0600 
     12 H12         5.4699    1.6032    0.7467 H         1 UNK         0.0600 
     13 H13         1.4137   -0.6622   -0.7335 H         1 UNK         0.0600 
     14 H14         1.3917   -0.4420    1.0160 H         1 UNK         0.0600 
     15 H15         7.5648    0.5012   -0.0159 H         1 UNK         0.0600 
     16 H16         6.6551   -0.5987    1.0161 H         1 UNK         0.0600 
     17 H17         6.6403   -0.8149   -0.7342 H         1 UNK         0.0600 
     18 H18        -0.0585    1.5961    0.7361 H         1 UNK         0.0600 
     19 H19        -0.0362    1.3828   -0.9982 H         1 UNK         0.0600 
     20 H20        -2.1477    0.4888   -0.0344 H         1 UNK         0.0600 
     21 H21        -1.2171   -0.8250   -0.7492 H         1 UNK         0.0600 
     22 H22        -1.2391   -0.6088    1.0011 H         1 UNK         0.0600 
@<TRIPOS>BOND
     1    1    2 1    
     2    1    3 1    
     3    1    9 1    
     4    1   10 1    
     5    2    4 1    
     6    2    5 2    
     7    3    6 1    
     8    3   11 1    
     9    3   12 1    
    10    4    7 1    
    11    4   13 1    
    12    4   14 1    
    13    6   15 1    
    14    6   16 1    
    15    6   17 1    
    16    7    8 1    
    17    7   18 1    
    18    7   19 1    
    19    8   20 1    
    20    8   21 1    
    21    8   22 1    
@<TRIPOS>SUBSTRUCTURE
     1 UNK         1 GROUP             0       ****    0 ROOT    
