@<TRIPOS>MOLECULE
title: molecule 1
27   27    1
SMALL
USER_CHARGES


@<TRIPOS>ATOM
      1 C1          2.4385    0.6283    0.1085 C.3       1 UNK         0.1400 
      2 O2          3.0887    1.8918    0.1028 O.3       1 UNK        -0.2850 
      3 C3          0.9225    0.8576    0.1091 C.3       1 UNK        -0.1200 
      4 C4          4.4670    1.9172    0.1013 C.ar      1 UNK         0.0850 
      5 C5          0.1265   -0.4554    0.1152 C.3       1 UNK        -0.1200 
      6 C6          5.0831    3.1856    0.0956 C.ar      1 UNK        -0.1150 
      7 C7          5.2869    0.7602    0.1051 C.ar      1 UNK        -0.1150 
      8 C8         -1.3888   -0.2254    0.1158 C.3       1 UNK        -0.1800 
      9 C9          6.4861    3.3070    0.0937 C.ar      1 UNK        -0.1150 
     10 C10         6.6905    0.8803    0.1032 C.ar      1 UNK        -0.1150 
     11 C11         7.2927    2.1532    0.0975 C.ar      1 UNK         0.1800 
     12 N12         8.6814    2.2702    0.0956 N.pl3     1 UNK        -0.9000 
     13 H13         2.7254    0.0605    0.9950 H         1 UNK         0.0300 
     14 H14         2.7237    0.0534   -0.7741 H         1 UNK         0.0300 
     15 H15         0.6492    1.4538    0.9806 H         1 UNK         0.0600 
     16 H16         0.6475    1.4468   -0.7666 H         1 UNK         0.0600 
     17 H17         0.3984   -1.0523   -0.7562 H         1 UNK         0.0600 
     18 H18         0.4002   -1.0453    0.9907 H         1 UNK         0.0600 
     19 H19         4.4720    4.0762    0.0926 H         1 UNK         0.1150 
     20 H20         4.8638   -0.2326    0.1095 H         1 UNK         0.1150 
     21 H21        -1.9257   -1.1742    0.1201 H         1 UNK         0.0600 
     22 H22        -1.7016    0.3376    0.9956 H         1 UNK         0.0600 
     23 H23        -1.7033    0.3305   -0.7679 H         1 UNK         0.0600 
     24 H24         6.9373    4.2885    0.0893 H         1 UNK         0.1150 
     25 H25         7.3015   -0.0106    0.1061 H         1 UNK         0.1150 
     26 H26         9.2805    1.4572    0.0982 H         1 UNK         0.3600 
     27 H27         9.1358    3.1722    0.0915 H         1 UNK         0.3600 
@<TRIPOS>BOND
     1    1    2 1    
     2    1    3 1    
     3    1   13 1    
     4    1   14 1    
     5    2    4 1    
     6    3    5 1    
     7    3   15 1    
     8    3   16 1    
     9    4    6 ar   
    10    4    7 ar   
    11    5    8 1    
    12    5   17 1    
    13    5   18 1    
    14    6    9 ar   
    15    6   19 1    
    16    7   10 ar   
    17    7   20 1    
    18    8   21 1    
    19    8   22 1    
    20    8   23 1    
    21    9   11 ar   
    22    9   24 1    
    23   10   11 ar   
    24   10   25 1    
    25   11   12 1    
    26   12   26 1    
    27   12   27 1    
@<TRIPOS>SUBSTRUCTURE
     1 UNK         1 GROUP             0       ****    0 ROOT    
