@<TRIPOS>MOLECULE
title: molecule 1
17   17    1
SMALL
USER_CHARGES


@<TRIPOS>ATOM
      1 O1          0.3124   -0.0865    0.4495 O.co2     1 UNK        -0.3700 
      2 N2          1.2646    0.1325   -0.2916 N.pl3     1 UNK         0.6500 
      3 O3          1.8242   -0.7302   -0.9600 O.co2     1 UNK        -0.3700 
      4 C4          1.8016    1.5032   -0.3629 C.ar      1 UNK         0.0900 
      5 C5          0.9580    2.6452   -0.4489 C.ar      1 UNK        -0.1150 
      6 C6          3.2035    1.6831   -0.3509 C.ar      1 UNK        -0.1150 
      7 C7         -0.5563    2.5269   -0.5094 C.3       1 UNK        -0.0650 
      8 C8          1.5318    3.9342   -0.5011 C.ar      1 UNK        -0.1150 
      9 C9          3.7654    2.9715   -0.4065 C.ar      1 UNK         0.2200 
     10 C10         2.9288    4.0986   -0.4786 C.ar      1 UNK        -0.1150 
     11 F11         5.1104    3.1256   -0.3884 F         1 UNK        -0.2200 
     12 H12         3.8583    0.8260   -0.2900 H         1 UNK         0.1150 
     13 H13        -1.0143    3.4626   -0.8313 H         1 UNK         0.0600 
     14 H14        -0.8579    1.7536   -1.2165 H         1 UNK         0.0600 
     15 H15        -0.9579    2.2779    0.4731 H         1 UNK         0.0600 
     16 H16         0.8998    4.8081   -0.5646 H         1 UNK         0.1150 
     17 H17         3.3583    5.0887   -0.5208 H         1 UNK         0.1150 
@<TRIPOS>BOND
     1    1    2 1    
     2    2    3 2    
     3    2    4 1    
     4    4    5 ar   
     5    4    6 ar   
     6    5    7 1    
     7    5    8 ar   
     8    6    9 ar   
     9    6   12 1    
    10    7   13 1    
    11    7   14 1    
    12    7   15 1    
    13    8   10 ar   
    14    8   16 1    
    15    9   10 ar   
    16    9   11 1    
    17   10   17 1    
@<TRIPOS>SUBSTRUCTURE
     1 UNK         1 GROUP             0       ****    0 ROOT    
