@<TRIPOS>MOLECULE
title: molecule 1
14   14    1
SMALL
USER_CHARGES


@<TRIPOS>ATOM
      1 C1          4.1873    1.7610    0.1311 C.ar      1 UNK        -0.1150 
      2 C2          3.3016    0.6675    0.0782 C.ar      1 UNK         0.2200 
      3 C3          3.6817    3.0748    0.1681 C.ar      1 UNK        -0.1150 
      4 C4          1.9103    0.8867    0.0621 C.ar      1 UNK        -0.1150 
      5 F5          3.7879   -0.5956    0.0426 F         1 UNK        -0.2200 
      6 C6          2.2905    3.2963    0.1522 C.ar      1 UNK        -0.1150 
      7 C7          1.3988    2.2032    0.0991 C.ar      1 UNK        -0.1150 
      8 C8         -0.0598    2.4504    0.0829 C.2       1 UNK         0.5650 
      9 O9         -0.9136    1.5658    0.0377 O.2       1 UNK        -0.4500 
     10 H10         5.2538    1.5914    0.1434 H         1 UNK         0.1150 
     11 H11         4.3614    3.9133    0.2087 H         1 UNK         0.1150 
     12 H12         1.2429    0.0378    0.0214 H         1 UNK         0.1150 
     13 H13         1.9157    4.3096    0.1809 H         1 UNK         0.1150 
     14 H14        -0.3357    3.5047    0.1148 H         1 UNK         0.0000 
@<TRIPOS>BOND
     1    1    2 ar   
     2    1    3 ar   
     3    1   10 1    
     4    2    4 ar   
     5    2    5 1    
     6    3    6 ar   
     7    3   11 1    
     8    4    7 ar   
     9    4   12 1    
    10    6    7 ar   
    11    6   13 1    
    12    7    8 1    
    13    8    9 2    
    14    8   14 1    
@<TRIPOS>SUBSTRUCTURE
     1 UNK         1 GROUP             0       ****    0 ROOT    
