@<TRIPOS>MOLECULE
title: molecule 1
12   12    1
SMALL
USER_CHARGES


@<TRIPOS>ATOM
      1 C1          1.2699   -1.1741    0.1225 C.ar      1 UNK         0.2000 
      2 C2          2.4895   -1.8796    0.1101 C.ar      1 UNK        -0.1150 
      3 C3          0.0492   -1.8774    0.1046 C.ar      1 UNK        -0.1150 
      4 Br4         1.2715    0.7284    0.1633 Br        1 UNK        -0.2000 
      5 C5          2.4882   -3.2881    0.0799 C.ar      1 UNK        -0.1150 
      6 C6          0.0481   -3.2860    0.0744 C.ar      1 UNK        -0.1150 
      7 C7          1.2675   -3.9913    0.0620 C.ar      1 UNK         0.2200 
      8 F8          1.2664   -5.3449    0.0330 F         1 UNK        -0.2200 
      9 H9          3.4256   -1.3410    0.1238 H         1 UNK         0.1150 
     10 H10        -0.8860   -1.3372    0.1140 H         1 UNK         0.1150 
     11 H11         3.4228   -3.8294    0.0704 H         1 UNK         0.1150 
     12 H12        -0.8874   -3.8255    0.0606 H         1 UNK         0.1150 
@<TRIPOS>BOND
     1    1    2 ar   
     2    1    3 ar   
     3    1    4 1    
     4    2    5 ar   
     5    2    9 1    
     6    3    6 ar   
     7    3   10 1    
     8    5    7 ar   
     9    5   11 1    
    10    6    7 ar   
    11    6   12 1    
    12    7    8 1    
@<TRIPOS>SUBSTRUCTURE
     1 UNK         1 GROUP             0       ****    0 ROOT    
