@<TRIPOS>MOLECULE
title: molecule 1
23   22    1
SMALL
USER_CHARGES


@<TRIPOS>ATOM
      1 C1          2.4594    0.7139   -0.0246 C.3       1 UNK         0.1450 
      2 C2          1.1811   -0.1179    0.1294 C.3       1 UNK         0.0800 
      3 O3          3.5874   -0.1205    0.1239 O.3       1 UNK        -0.6830 
      4 N4         -0.0073    0.7287   -0.0127 N.3       1 UNK        -0.7800 
      5 C5         -1.3248    0.0837    0.1186 C.3       1 UNK         0.2000 
      6 C6         -2.3957    1.1720   -0.0713 C.3       1 UNK        -0.1800 
      7 C7         -1.5151   -1.0010   -0.9609 C.3       1 UNK        -0.1800 
      8 C8         -1.4937   -0.5384    1.5197 C.3       1 UNK        -0.1800 
      9 H9          2.4945    1.1892   -1.0056 H         1 UNK         0.0600 
     10 H10         2.5007    1.5040    0.7260 H         1 UNK         0.0600 
     11 H11         1.1805   -0.9104   -0.6186 H         1 UNK         0.0600 
     12 H12         1.1932   -0.6005    1.1063 H         1 UNK         0.0600 
     13 H13         4.3664    0.4040    0.0180 H         1 UNK         0.4180 
     14 H14         0.0533    1.5064    0.6368 H         1 UNK         0.3800 
     15 H15        -3.4020    0.7596    0.0114 H         1 UNK         0.0600 
     16 H16        -2.3030    1.9590    0.6781 H         1 UNK         0.0600 
     17 H17        -2.3154    1.6415   -1.0526 H         1 UNK         0.0600 
     18 H18        -2.5296   -1.4005   -0.9404 H         1 UNK         0.0600 
     19 H19        -1.3420   -0.6012   -1.9608 H         1 UNK         0.0600 
     20 H20        -0.8410   -1.8457   -0.8191 H         1 UNK         0.0600 
     21 H21        -2.5068   -0.9169    1.6601 H         1 UNK         0.0600 
     22 H22        -0.8191   -1.3792    1.6807 H         1 UNK         0.0600 
     23 H23        -1.3076    0.1935    2.3067 H         1 UNK         0.0600 
@<TRIPOS>BOND
     1    1    2 1    
     2    1    3 1    
     3    1    9 1    
     4    1   10 1    
     5    2    4 1    
     6    2   11 1    
     7    2   12 1    
     8    3   13 1    
     9    4    5 1    
    10    4   14 1    
    11    5    6 1    
    12    5    7 1    
    13    5    8 1    
    14    6   15 1    
    15    6   16 1    
    16    6   17 1    
    17    7   18 1    
    18    7   19 1    
    19    7   20 1    
    20    8   21 1    
    21    8   22 1    
    22    8   23 1    
@<TRIPOS>SUBSTRUCTURE
     1 UNK         1 GROUP             0       ****    0 ROOT    
