@<TRIPOS>MOLECULE
title: molecule 1
21   20    1
SMALL
USER_CHARGES


@<TRIPOS>ATOM
      1 C1         -0.1203   -1.6478   -0.3609 C.2       1 UNK        -0.2300 
      2 C2          1.1098   -1.2356   -0.0029 C.2       1 UNK         0.0000 
      3 C3          1.3504    0.1021    0.6812 C.3       1 UNK        -0.1800 
      4 C4          2.2822   -2.1038   -0.2777 C.2       1 UNK         0.5100 
      5 O5          2.2051   -3.2070   -0.8233 O.2       1 UNK        -0.4300 
      6 O6          3.4434   -1.5502    0.1408 O.3       1 UNK        -0.3300 
      7 C7          4.6862   -2.2185   -0.0431 C.3       1 UNK         0.2200 
      8 C8          5.7668   -1.1507   -0.2508 C.3       1 UNK        -0.1800 
      9 C9          4.9794   -3.1077    1.1747 C.3       1 UNK        -0.1800 
     10 H10        -0.2905   -2.5982   -0.8469 H         1 UNK         0.1150 
     11 H11        -0.9874   -1.0325   -0.1707 H         1 UNK         0.1150 
     12 H12         2.0087    0.7304    0.0801 H         1 UNK         0.0600 
     13 H13         0.4147    0.6430    0.8260 H         1 UNK         0.0600 
     14 H14         1.8067   -0.0421    1.6613 H         1 UNK         0.0600 
     15 H15         4.6521   -2.8385   -0.9402 H         1 UNK         0.0300 
     16 H16         6.7438   -1.6077   -0.4094 H         1 UNK         0.0600 
     17 H17         5.5441   -0.5353   -1.1229 H         1 UNK         0.0600 
     18 H18         5.8425   -0.4898    0.6133 H         1 UNK         0.0600 
     19 H19         5.9357   -3.6191    1.0638 H         1 UNK         0.0600 
     20 H20         5.0182   -2.5209    2.0929 H         1 UNK         0.0600 
     21 H21         4.2111   -3.8712    1.2992 H         1 UNK         0.0600 
@<TRIPOS>BOND
     1    1    2 2    
     2    1   10 1    
     3    1   11 1    
     4    2    3 1    
     5    2    4 1    
     6    3   12 1    
     7    3   13 1    
     8    3   14 1    
     9    4    5 2    
    10    4    6 1    
    11    6    7 1    
    12    7    8 1    
    13    7    9 1    
    14    7   15 1    
    15    8   16 1    
    16    8   17 1    
    17    8   18 1    
    18    9   19 1    
    19    9   20 1    
    20    9   21 1    
@<TRIPOS>SUBSTRUCTURE
     1 UNK         1 GROUP             0       ****    0 ROOT    
