@<TRIPOS>MOLECULE
title: molecule 1
7   6    1
SMALL
USER_CHARGES


@<TRIPOS>ATOM
      1 C1         -0.2403    0.8784    0.0704 C.1       1 UNK        -0.2100 
      2 C2          0.9795    0.8283    0.1011 C.1       1 UNK         0.0100 
      3 C3          2.4178    0.7103    0.1420 C.2       1 UNK         0.5200 
      4 O4          3.0190    1.9307    0.0601 O.3       1 UNK        -0.5300 
      5 O5          3.0073   -0.3632    0.2388 O.2       1 UNK        -0.4400 
      6 H6         -1.3060    0.9194    0.0439 H         1 UNK         0.2000 
      7 H7          3.9610    1.8659    0.0860 H         1 UNK         0.4500 
@<TRIPOS>BOND
     1    1    2 3    
     2    1    6 1    
     3    2    3 1    
     4    3    4 1    
     5    3    5 2    
     6    4    7 1    
@<TRIPOS>SUBSTRUCTURE
     1 UNK         1 GROUP             0       ****    0 ROOT    
