@<TRIPOS>MOLECULE
title: molecule 1
17   17    1
SMALL
USER_CHARGES


@<TRIPOS>ATOM
      1 O1          1.9642    3.7164    0.1650 O.3       1 UNK        -0.5850 
      2 C2          1.9749    2.3491    0.1178 C.ar      1 UNK         0.1500 
      3 C3          0.7515    1.6389    0.1083 C.ar      1 UNK        -0.1150 
      4 C4          3.1993    1.6412    0.0842 C.ar      1 UNK         0.1500 
      5 C5         -0.5721    2.3812    0.1410 C.3       1 UNK        -0.0650 
      6 C6          0.7597    0.2286    0.0714 C.ar      1 UNK        -0.1150 
      7 O7          4.3981    2.2974    0.0776 O.3       1 UNK        -0.5850 
      8 C8          3.1965    0.2329    0.0509 C.ar      1 UNK        -0.1150 
      9 C9          1.9793   -0.4729    0.0446 C.ar      1 UNK        -0.1150 
     10 H10         2.8138    4.1084    0.2819 H         1 UNK         0.4350 
     11 H11        -1.4175    1.6928    0.1213 H         1 UNK         0.0600 
     12 H12        -0.6464    2.9828    1.0472 H         1 UNK         0.0600 
     13 H13        -0.6558    3.0444   -0.7204 H         1 UNK         0.0600 
     14 H14        -0.1698   -0.3218    0.0651 H         1 UNK         0.1150 
     15 H15         4.3295    3.2336   -0.0122 H         1 UNK         0.4350 
     16 H16         4.1306   -0.3092    0.0266 H         1 UNK         0.1150 
     17 H17         1.9811   -1.5527    0.0173 H         1 UNK         0.1150 
@<TRIPOS>BOND
     1    1    2 1    
     2    1   10 1    
     3    2    3 ar   
     4    2    4 ar   
     5    3    5 1    
     6    3    6 ar   
     7    4    7 1    
     8    4    8 ar   
     9    5   11 1    
    10    5   12 1    
    11    5   13 1    
    12    6    9 ar   
    13    6   14 1    
    14    7   15 1    
    15    8    9 ar   
    16    8   16 1    
    17    9   17 1    
@<TRIPOS>SUBSTRUCTURE
     1 UNK         1 GROUP             0       ****    0 ROOT    
