@<TRIPOS>MOLECULE
title: molecule 1
14   14    1
SMALL
USER_CHARGES


@<TRIPOS>ATOM
      1 Br1         4.5222   -2.2731   -0.2313 Br        1 UNK        -0.2000 
      2 C2          3.0615   -1.4677    0.6962 C.ar      1 UNK         0.2000 
      3 C3          1.9948   -0.9009   -0.0346 C.ar      1 UNK         0.1500 
      4 C4          3.0447   -1.4419    2.1078 C.ar      1 UNK         0.2000 
      5 O5          2.0180   -0.9445   -1.4016 O.3       1 UNK        -0.5850 
      6 C6          0.9128   -0.3008    0.6475 C.ar      1 UNK         0.1500 
      7 Br7         4.4866   -2.2106    3.0936 Br        1 UNK        -0.2000 
      8 C8          1.9597   -0.8487    2.7895 C.ar      1 UNK         0.2000 
      9 O9         -0.1195    0.2669   -0.0477 O.3       1 UNK        -0.5850 
     10 C10         0.8946   -0.2785    2.0589 C.ar      1 UNK         0.2000 
     11 Br11        1.9339   -0.8155    4.6974 Br        1 UNK        -0.2000 
     12 Br12       -0.5722    0.5300    2.9742 Br        1 UNK        -0.2000 
     13 H13         1.2177   -0.6706   -1.8192 H         1 UNK         0.4350 
     14 H14         0.0211    0.3356   -0.9779 H         1 UNK         0.4350 
@<TRIPOS>BOND
     1    1    2 1    
     2    2    3 ar   
     3    2    4 ar   
     4    3    5 1    
     5    3    6 ar   
     6    4    7 1    
     7    4    8 ar   
     8    5   13 1    
     9    6    9 1    
    10    6   10 ar   
    11    8   11 1    
    12    8   10 ar   
    13    9   14 1    
    14   10   12 1    
@<TRIPOS>SUBSTRUCTURE
     1 UNK         1 GROUP             0       ****    0 ROOT    
