@<TRIPOS>MOLECULE
title: molecule 1
23   23    1
SMALL
USER_CHARGES


@<TRIPOS>ATOM
      1 C1         -0.6927    1.3004    0.4498 C.3       1 UNK        -0.1800 
      2 C2          0.7012    1.9208    0.5877 C.3       1 UNK        -0.1200 
      3 C3          1.4255    2.0268   -0.7647 C.3       1 UNK        -0.1200 
      4 C4          2.8199    2.6490   -0.6327 C.2       1 UNK         0.5850 
      5 O5          2.9523    3.8425   -0.9031 O.2       1 UNK        -0.4700 
      6 C6          3.9517    1.7847   -0.1821 C.ar      1 UNK        -0.1150 
      7 C7          5.2375    2.3570   -0.0366 C.ar      1 UNK        -0.1150 
      8 C8          3.7847    0.4071    0.1028 C.ar      1 UNK        -0.1150 
      9 C9          6.3301    1.5744    0.3844 C.ar      1 UNK        -0.1150 
     10 C10         4.8782   -0.3745    0.5242 C.ar      1 UNK        -0.1150 
     11 C11         6.1512    0.2076    0.6653 C.ar      1 UNK        -0.1150 
     12 H12        -1.1887    1.2397    1.4188 H         1 UNK         0.0600 
     13 H13        -1.3246    1.8947   -0.2108 H         1 UNK         0.0600 
     14 H14        -0.6353    0.2910    0.0415 H         1 UNK         0.0600 
     15 H15         0.6089    2.9122    1.0334 H         1 UNK         0.0600 
     16 H16         1.2878    1.3243    1.2872 H         1 UNK         0.0600 
     17 H17         1.4986    1.0514   -1.2449 H         1 UNK         0.0600 
     18 H18         0.8380    2.6491   -1.4405 H         1 UNK         0.0600 
     19 H19         5.4000    3.4046   -0.2465 H         1 UNK         0.1150 
     20 H20         2.8247   -0.0767    0.0083 H         1 UNK         0.1150 
     21 H21         7.3062    2.0240    0.4917 H         1 UNK         0.1150 
     22 H22         4.7392   -1.4237    0.7397 H         1 UNK         0.1150 
     23 H23         6.9887   -0.3930    0.9884 H         1 UNK         0.1150 
@<TRIPOS>BOND
     1    1    2 1    
     2    1   12 1    
     3    1   13 1    
     4    1   14 1    
     5    2    3 1    
     6    2   15 1    
     7    2   16 1    
     8    3    4 1    
     9    3   17 1    
    10    3   18 1    
    11    4    5 2    
    12    4    6 1    
    13    6    7 ar   
    14    6    8 ar   
    15    7    9 ar   
    16    7   19 1    
    17    8   10 ar   
    18    8   20 1    
    19    9   11 ar   
    20    9   21 1    
    21   10   11 ar   
    22   10   22 1    
    23   11   23 1    
@<TRIPOS>SUBSTRUCTURE
     1 UNK         1 GROUP             0       ****    0 ROOT    
