@<TRIPOS>MOLECULE
title: molecule 1
21   21    1
SMALL
USER_CHARGES


@<TRIPOS>ATOM
      1 C1          3.4169    0.9571   -0.1422 C.ar      1 UNK         0.0850 
      2 C2          2.0084    0.8674   -0.1492 C.ar      1 UNK        -0.1150 
      3 C3          4.0152    2.2325    0.0875 C.ar      1 UNK         0.1500 
      4 O4          4.0683   -0.2394   -0.3783 O.3       1 UNK        -0.2850 
      5 C5          1.1960    1.9961    0.0777 C.ar      1 UNK        -0.0779 
      6 C6          3.1984    3.3595    0.3158 C.ar      1 UNK        -0.1150 
      7 O7          5.3648    2.4421    0.0861 O.3       1 UNK        -0.5850 
      8 C8          5.4665   -0.3561   -0.1703 C.3       1 UNK         0.1100 
      9 C9          1.7974    3.2455    0.3135 C.ar      1 UNK        -0.1150 
     10 C10        -0.3151    1.8702    0.0689 C.3       1 UNK         0.1972 
     11 O11        -0.8789    2.0379    1.3517 O.3       1 UNK        -0.6333 
     12 H12         1.5464   -0.0928   -0.3271 H         1 UNK         0.1150 
     13 H13         3.6469    4.3264    0.4915 H         1 UNK         0.1150 
     14 H14         5.6016    3.3423    0.2476 H         1 UNK         0.4350 
     15 H15         5.7510   -1.4046   -0.2564 H         1 UNK         0.0300 
     16 H16         6.0290    0.1935   -0.9255 H         1 UNK         0.0300 
     17 H17         5.7562   -0.0222    0.8268 H         1 UNK         0.0300 
     18 H18         1.1854    4.1179    0.4907 H         1 UNK         0.1150 
     19 H19        -0.7329    2.6211   -0.6024 H         1 UNK         0.0480 
     20 H20        -0.6112    0.8961   -0.3219 H         1 UNK         0.0480 
     21 H21        -1.8172    1.9501    1.2822 H         1 UNK         0.4180 
@<TRIPOS>BOND
     1    1    2 ar   
     2    1    3 ar   
     3    1    4 1    
     4    2    5 ar   
     5    2   12 1    
     6    3    6 ar   
     7    3    7 1    
     8    4    8 1    
     9    5    9 ar   
    10    5   10 1    
    11    6    9 ar   
    12    6   13 1    
    13    7   14 1    
    14    8   15 1    
    15    8   16 1    
    16    8   17 1    
    17    9   18 1    
    18   10   11 1    
    19   10   19 1    
    20   10   20 1    
    21   11   21 1    
@<TRIPOS>SUBSTRUCTURE
     1 UNK         1 GROUP             0       ****    0 ROOT    
