@<TRIPOS>MOLECULE
title: molecule 1
15   15    1
SMALL
USER_CHARGES


@<TRIPOS>ATOM
      1 C1          5.6671   -2.1987    0.2991 C.2       1 UNK         0.6350 
      2 O2          6.2556   -3.0415    0.9733 O.2       1 UNK        -0.4400 
      3 O3          6.3030   -1.3146   -0.5221 O.3       1 UNK        -0.5300 
      4 C4          4.1677   -2.1636    0.2107 C.ar      1 UNK        -0.1150 
      5 C5          3.4702   -3.3866    0.0868 C.ar      1 UNK        -0.1150 
      6 C6          3.4296   -0.9497    0.2600 C.ar      1 UNK         0.1800 
      7 C7          2.0660   -3.4085   -0.0078 C.ar      1 UNK        -0.1150 
      8 C8          2.0234   -0.9806    0.1632 C.ar      1 UNK        -0.1150 
      9 Cl9         4.1872    0.5925    0.4749 Cl        1 UNK        -0.1800 
     10 C10         1.3416   -2.2038    0.0272 C.ar      1 UNK         0.1800 
     11 Cl11       -0.3797   -2.2262   -0.0887 Cl        1 UNK        -0.1800 
     12 H12         7.2362   -1.4586   -0.5459 H         1 UNK         0.4500 
     13 H13         4.0124   -4.3210    0.0553 H         1 UNK         0.1150 
     14 H14         1.5468   -4.3504   -0.1077 H         1 UNK         0.1150 
     15 H15         1.4629   -0.0580    0.2014 H         1 UNK         0.1150 
@<TRIPOS>BOND
     1    1    2 2    
     2    1    3 1    
     3    1    4 1    
     4    3   12 1    
     5    4    5 ar   
     6    4    6 ar   
     7    5    7 ar   
     8    5   13 1    
     9    6    8 ar   
    10    6    9 1    
    11    7   10 ar   
    12    7   14 1    
    13    8   10 ar   
    14    8   15 1    
    15   10   11 1    
@<TRIPOS>SUBSTRUCTURE
     1 UNK         1 GROUP             0       ****    0 ROOT    
