@<TRIPOS>MOLECULE
title: molecule 1
29   29    1
SMALL
USER_CHARGES


@<TRIPOS>ATOM
      1 C1         -0.2844   -4.2889    0.4654 C.3       1 UNK        -0.1800 
      2 C2          1.0840   -3.7606    0.9098 C.3       1 UNK        -0.1200 
      3 C3          2.1380   -3.8433   -0.2037 C.3       1 UNK        -0.1200 
      4 C4          3.5089   -3.3140    0.2415 C.3       1 UNK        -0.1200 
      5 C5          4.5625   -3.3971   -0.8725 C.3       1 UNK        -0.0050 
      6 C6          5.9132   -2.8724   -0.4238 C.ar      1 UNK        -0.1150 
      7 C7          6.8531   -3.7459    0.1624 C.ar      1 UNK        -0.1150 
      8 C8          6.2327   -1.5079   -0.5855 C.ar      1 UNK        -0.1150 
      9 C9          8.1063   -3.2588    0.5830 C.ar      1 UNK         0.1500 
     10 C10         7.4862   -1.0203   -0.1649 C.ar      1 UNK         0.1500 
     11 O11         9.0107   -4.1093    1.1493 O.3       1 UNK        -0.5850 
     12 C12         8.4230   -1.8957    0.4188 C.ar      1 UNK        -0.1150 
     13 O13         7.7950    0.2996   -0.3214 O.3       1 UNK        -0.5850 
     14 H14        -1.0101   -4.2173    1.2758 H         1 UNK         0.0600 
     15 H15        -0.6717   -3.7185   -0.3792 H         1 UNK         0.0600 
     16 H16        -0.2240   -5.3353    0.1647 H         1 UNK         0.0600 
     17 H17         0.9794   -2.7261    1.2390 H         1 UNK         0.0600 
     18 H18         1.4228   -4.3276    1.7776 H         1 UNK         0.0600 
     19 H19         2.2382   -4.8788   -0.5315 H         1 UNK         0.0600 
     20 H20         1.7946   -3.2770   -1.0704 H         1 UNK         0.0600 
     21 H21         3.4088   -2.2785    0.5692 H         1 UNK         0.0600 
     22 H22         3.8524   -3.8808    1.1080 H         1 UNK         0.0600 
     23 H23         4.6744   -4.4300   -1.2049 H         1 UNK         0.0600 
     24 H24         4.2315   -2.8298   -1.7434 H         1 UNK         0.0600 
     25 H25         6.6130   -4.7913    0.2920 H         1 UNK         0.1150 
     26 H26         5.5135   -0.8361   -1.0312 H         1 UNK         0.1150 
     27 H27         9.8176   -3.6840    1.3960 H         1 UNK         0.4350 
     28 H28         9.3829   -1.5181    0.7401 H         1 UNK         0.1150 
     29 H29         7.1003    0.7996   -0.7216 H         1 UNK         0.4350 
@<TRIPOS>BOND
     1    1    2 1    
     2    1   14 1    
     3    1   15 1    
     4    1   16 1    
     5    2    3 1    
     6    2   17 1    
     7    2   18 1    
     8    3    4 1    
     9    3   19 1    
    10    3   20 1    
    11    4    5 1    
    12    4   21 1    
    13    4   22 1    
    14    5    6 1    
    15    5   23 1    
    16    5   24 1    
    17    6    7 ar   
    18    6    8 ar   
    19    7    9 ar   
    20    7   25 1    
    21    8   10 ar   
    22    8   26 1    
    23    9   11 1    
    24    9   12 ar   
    25   10   12 ar   
    26   10   13 1    
    27   11   27 1    
    28   12   28 1    
    29   13   29 1    
@<TRIPOS>SUBSTRUCTURE
     1 UNK         1 GROUP             0       ****    0 ROOT    
