@<TRIPOS>MOLECULE
title: molecule 1
21   21    1
SMALL
USER_CHARGES


@<TRIPOS>ATOM
      1 C1         -0.8530    0.6256    0.1007 C.3       1 UNK         0.1100 
      2 O2         -0.1042    1.8321    0.1169 O.3       1 UNK        -0.2850 
      3 C3          1.2715    1.7434    0.1066 C.ar      1 UNK         0.0850 
      4 C4          1.9907    2.9557    0.1232 C.ar      1 UNK        -0.1150 
      5 C5          1.9908    0.5234    0.0808 C.ar      1 UNK        -0.1150 
      6 C6          3.4001    2.9793    0.1146 C.ar      1 UNK         0.0850 
      7 C7          3.3989    0.5306    0.0720 C.ar      1 UNK         0.1500 
      8 O8          4.0056    4.2176    0.1323 O.3       1 UNK        -0.2850 
      9 C9          4.1024    1.7497    0.0887 C.ar      1 UNK        -0.1150 
     10 O10         4.0875   -0.6474    0.0471 O.3       1 UNK        -0.5850 
     11 C11         5.4249    4.2681    0.1241 C.3       1 UNK         0.1100 
     12 H12        -1.9168    0.8625    0.1116 H         1 UNK         0.0300 
     13 H13        -0.6542    0.0448   -0.8010 H         1 UNK         0.0300 
     14 H14        -0.6429    0.0138    0.9791 H         1 UNK         0.0300 
     15 H15         1.4483    3.8898    0.1429 H         1 UNK         0.1150 
     16 H16         1.4815   -0.4282    0.0675 H         1 UNK         0.1150 
     17 H17         5.1814    1.7164    0.0813 H         1 UNK         0.1150 
     18 H18         3.5271   -1.4081    0.0374 H         1 UNK         0.4350 
     19 H19         5.7478    5.3089    0.1402 H         1 UNK         0.0300 
     20 H20         5.8464    3.7788    1.0032 H         1 UNK         0.0300 
     21 H21         5.8351    3.8098   -0.7768 H         1 UNK         0.0300 
@<TRIPOS>BOND
     1    1    2 1    
     2    1   12 1    
     3    1   13 1    
     4    1   14 1    
     5    2    3 1    
     6    3    4 ar   
     7    3    5 ar   
     8    4    6 ar   
     9    4   15 1    
    10    5    7 ar   
    11    5   16 1    
    12    6    8 1    
    13    6    9 ar   
    14    7    9 ar   
    15    7   10 1    
    16    8   11 1    
    17    9   17 1    
    18   10   18 1    
    19   11   19 1    
    20   11   20 1    
    21   11   21 1    
@<TRIPOS>SUBSTRUCTURE
     1 UNK         1 GROUP             0       ****    0 ROOT    
