@<TRIPOS>MOLECULE
title: molecule 1
28   27    1
SMALL
USER_CHARGES


@<TRIPOS>ATOM
      1 C1          9.4366   -0.2463    0.1131 C.3       1 UNK        -0.1800 
      2 C2          8.3726   -1.3494    0.1108 C.3       1 UNK        -0.1200 
      3 C3          6.9433   -0.7900    0.1091 C.3       1 UNK        -0.1200 
      4 C4          5.8828   -1.9052    0.1068 C.3       1 UNK        -0.1200 
      5 C5          4.4414   -1.3888    0.1051 C.2       1 UNK         0.4700 
      6 O6          4.1809   -0.1850    0.1056 O.2       1 UNK        -0.4700 
      7 C7          3.3425   -2.4550    0.1027 C.3       1 UNK        -0.1200 
      8 C8          1.9158   -1.8781    0.1011 C.3       1 UNK        -0.1200 
      9 C9          0.8457   -2.9784    0.0987 C.3       1 UNK        -0.1200 
     10 C10        -0.5792   -2.4139    0.0971 C.3       1 UNK        -0.1800 
     11 H11        10.4395   -0.6738    0.1142 H         1 UNK         0.0600 
     12 H12         9.3471    0.3893   -0.7683 H         1 UNK         0.0600 
     13 H13         9.3446    0.3880    0.9952 H         1 UNK         0.0600 
     14 H14         8.5173   -1.9858   -0.7630 H         1 UNK         0.0600 
     15 H15         8.5148   -1.9871    0.9840 H         1 UNK         0.0600 
     16 H16         6.8053   -0.1528    0.9840 H         1 UNK         0.0600 
     17 H17         6.8078   -0.1515   -0.7652 H         1 UNK         0.0600 
     18 H18         6.0188   -2.5407   -0.7686 H         1 UNK         0.0600 
     19 H19         6.0163   -2.5420    0.9815 H         1 UNK         0.0600 
     20 H20         3.4841   -3.0893   -0.7726 H         1 UNK         0.0600 
     21 H21         3.4816   -3.0906    0.9775 H         1 UNK         0.0600 
     22 H22         1.7753   -1.2414    0.9760 H         1 UNK         0.0600 
     23 H23         1.7778   -1.2401   -0.7732 H         1 UNK         0.0600 
     24 H24         0.9797   -3.6171   -0.7751 H         1 UNK         0.0600 
     25 H25         0.9772   -3.6185    0.9720 H         1 UNK         0.0600 
     26 H26        -1.3156   -3.2179    0.0955 H         1 UNK         0.0600 
     27 H27        -0.7604   -1.7990    0.9791 H         1 UNK         0.0600 
     28 H28        -0.7579   -1.7976   -0.7844 H         1 UNK         0.0600 
@<TRIPOS>BOND
     1    1    2 1    
     2    1   11 1    
     3    1   12 1    
     4    1   13 1    
     5    2    3 1    
     6    2   14 1    
     7    2   15 1    
     8    3    4 1    
     9    3   16 1    
    10    3   17 1    
    11    4    5 1    
    12    4   18 1    
    13    4   19 1    
    14    5    6 2    
    15    5    7 1    
    16    7    8 1    
    17    7   20 1    
    18    7   21 1    
    19    8    9 1    
    20    8   22 1    
    21    8   23 1    
    22    9   10 1    
    23    9   24 1    
    24    9   25 1    
    25   10   26 1    
    26   10   27 1    
    27   10   28 1    
@<TRIPOS>SUBSTRUCTURE
     1 UNK         1 GROUP             0       ****    0 ROOT    
