@<TRIPOS>MOLECULE
title: molecule 1
17   17    1
SMALL
USER_CHARGES


@<TRIPOS>ATOM
      1 C1         -0.2386   -1.2262    0.1566 C.ar      1 UNK         0.1500 
      2 C2         -1.2260   -0.2222    0.1136 C.ar      1 UNK        -0.1150 
      3 C3          1.1259   -0.8741    0.1386 C.ar      1 UNK        -0.1150 
      4 O4         -0.6063   -2.5389    0.2151 O.3       1 UNK        -0.5850 
      5 C5         -0.8492    1.1343    0.0518 C.ar      1 UNK         0.1500 
      6 C6          1.5058    0.4829    0.0788 C.ar      1 UNK        -0.1150 
      7 C7          0.5151    1.4857    0.0338 C.ar      1 UNK        -0.1150 
      8 O8         -1.8029    2.1092    0.0088 O.3       1 UNK        -0.5850 
      9 C9          2.9724    0.8616    0.0564 C.3       1 UNK        -0.0650 
     10 H10        -2.2709   -0.4960    0.1275 H         1 UNK         0.1150 
     11 H11         1.8830   -1.6443    0.1702 H         1 UNK         0.1150 
     12 H12         0.1296   -3.1310    0.2401 H         1 UNK         0.4350 
     13 H13         0.7999    2.5268   -0.0150 H         1 UNK         0.1150 
     14 H14        -2.6841    1.7688    0.0254 H         1 UNK         0.4350 
     15 H15         3.1288    1.8400    0.5118 H         1 UNK         0.0600 
     16 H16         3.5704    0.1345    0.6067 H         1 UNK         0.0600 
     17 H17         3.3353    0.8985   -0.9709 H         1 UNK         0.0600 
@<TRIPOS>BOND
     1    1    2 ar   
     2    1    3 ar   
     3    1    4 1    
     4    2    5 ar   
     5    2   10 1    
     6    3    6 ar   
     7    3   11 1    
     8    4   12 1    
     9    5    7 ar   
    10    5    8 1    
    11    6    7 ar   
    12    6    9 1    
    13    7   13 1    
    14    8   14 1    
    15    9   15 1    
    16    9   16 1    
    17    9   17 1    
@<TRIPOS>SUBSTRUCTURE
     1 UNK         1 GROUP             0       ****    0 ROOT    
