@<TRIPOS>MOLECULE
title: molecule 1
27   26    1
SMALL
USER_CHARGES


@<TRIPOS>ATOM
      1 C1          3.3767   -0.0490    0.1271 C.3       1 UNK        -0.1200 
      2 C2          4.6756    0.7696    0.0961 C.3       1 UNK        -0.1200 
      3 C3          2.1216    0.8359    0.1224 C.3       1 UNK        -0.1200 
      4 C4          5.9307   -0.1153    0.1008 C.3       1 UNK        -0.1200 
      5 C5          0.8230    0.0175    0.1533 C.3       1 UNK        -0.0095 
      6 C6          7.2298    0.7031    0.0699 C.3       1 UNK        -0.1200 
      7 C7         -0.4288    0.9021    0.1486 C.3       1 UNK        -0.1994 
      8 C8          8.4826   -0.1827    0.0746 C.3       1 UNK         0.1450 
      9 Br9        -2.0555   -0.2442    0.1898 Br        1 UNK        -0.2039 
     10 O10         9.6388    0.6260    0.0454 O.3       1 UNK        -0.6830 
     11 H11         3.3505   -0.7198   -0.7326 H         1 UNK         0.0600 
     12 H12         3.3694   -0.6837    1.0141 H         1 UNK         0.0600 
     13 H13         4.6831    1.4044   -0.7909 H         1 UNK         0.0600 
     14 H14         4.7020    1.4405    0.9558 H         1 UNK         0.0600 
     15 H15         2.1477    1.5066    0.9821 H         1 UNK         0.0600 
     16 H16         2.1288    1.4705   -0.7647 H         1 UNK         0.0600 
     17 H17         5.9236   -0.7499    0.9879 H         1 UNK         0.0600 
     18 H18         5.9047   -0.7860   -0.7589 H         1 UNK         0.0600 
     19 H19         0.7932   -0.6527   -0.7066 H         1 UNK         0.0600 
     20 H20         0.8121   -0.6166    1.0406 H         1 UNK         0.0600 
     21 H21         7.2376    1.3377   -0.8174 H         1 UNK         0.0600 
     22 H22         7.2565    1.3738    0.9298 H         1 UNK         0.0600 
     23 H23        -0.4599    1.5573    1.0196 H         1 UNK         0.1464 
     24 H24        -0.4790    1.5208   -0.7478 H         1 UNK         0.1464 
     25 H25         8.5085   -0.8089    0.9670 H         1 UNK         0.0600 
     26 H26         8.4895   -0.8452   -0.7915 H         1 UNK         0.0600 
     27 H27        10.3997    0.0652    0.0488 H         1 UNK         0.4180 
@<TRIPOS>BOND
     1    1    2 1    
     2    1    3 1    
     3    1   11 1    
     4    1   12 1    
     5    2    4 1    
     6    2   13 1    
     7    2   14 1    
     8    3    5 1    
     9    3   15 1    
    10    3   16 1    
    11    4    6 1    
    12    4   17 1    
    13    4   18 1    
    14    5    7 1    
    15    5   19 1    
    16    5   20 1    
    17    6    8 1    
    18    6   21 1    
    19    6   22 1    
    20    7    9 1    
    21    7   23 1    
    22    7   24 1    
    23    8   10 1    
    24    8   25 1    
    25    8   26 1    
    26   10   27 1    
@<TRIPOS>SUBSTRUCTURE
     1 UNK         1 GROUP             0       ****    0 ROOT    
