@<TRIPOS>MOLECULE
title: molecule 1
13   12    1
SMALL
USER_CHARGES


@<TRIPOS>ATOM
      1 N1          4.7010   -1.8675    0.0796 N.am      1 UNK        -0.8839 
      2 C2          3.6462   -0.9822    0.0848 C.2       1 UNK         0.6325 
      3 O3          3.7355    0.2447    0.0801 O.2       1 UNK        -0.4970 
      4 O4          2.5012   -1.6791    0.0957 O.3       1 UNK        -0.3300 
      5 C5          1.2608   -0.9910    0.1028 C.3       1 UNK         0.1900 
      6 C6          0.1167   -2.0079    0.1148 C.3       1 UNK        -0.1800 
      7 H7          5.6384   -1.4935    0.0713 H         1 UNK         0.4142 
      8 H8          4.4960   -2.8557    0.0844 H         1 UNK         0.4142 
      9 H9          1.1991   -0.3476    0.9816 H         1 UNK         0.0300 
     10 H10         1.1858   -0.3532   -0.7790 H         1 UNK         0.0300 
     11 H11        -0.8497   -1.5037    0.1205 H         1 UNK         0.0600 
     12 H12         0.1535   -2.6501   -0.7655 H         1 UNK         0.0600 
     13 H13         0.1669   -2.6444    0.9985 H         1 UNK         0.0600 
@<TRIPOS>BOND
     1    1    2 am   BACKBONE|DICT|INTERRES
     2    1    7 1    
     3    1    8 1    
     4    2    3 2    
     5    2    4 1    
     6    4    5 1    
     7    5    6 1    
     8    5    9 1    
     9    5   10 1    
    10    6   11 1    
    11    6   12 1    
    12    6   13 1    
@<TRIPOS>SUBSTRUCTURE
     1 UNK         1 GROUP             0       ****    0 ROOT    
