@<TRIPOS>MOLECULE
title: molecule 1
38   37    1
SMALL
USER_CHARGES


@<TRIPOS>ATOM
      1 C1         13.5704    1.3973    0.1562 C.3       1 UNK         0.1450 
      2 O2         14.1880    0.1369    0.2993 O.3       1 UNK        -0.6830 
      3 C3         12.1039    1.2920    0.1461 C.1       1 UNK         0.0000 
      4 C4         10.8850    1.2180    0.1370 C.1       1 UNK         0.0000 
      5 C5          9.4150    1.1420    0.1298 C.3       1 UNK        -0.1200 
      6 C6          8.7340    2.5193    0.1300 C.3       1 UNK        -0.1200 
      7 C7          7.2020    2.4146    0.1226 C.3       1 UNK        -0.1200 
      8 C8          6.5167    3.7889    0.1229 C.3       1 UNK        -0.1200 
      9 C9          4.9847    3.6840    0.1157 C.3       1 UNK        -0.1200 
     10 C10         4.2994    5.0583    0.1163 C.3       1 UNK        -0.1200 
     11 C11         2.7674    4.9533    0.1091 C.3       1 UNK        -0.1200 
     12 C12         2.0821    6.3276    0.1097 C.3       1 UNK        -0.1200 
     13 C13         0.5502    6.2229    0.1024 C.3       1 UNK        -0.1200 
     14 C14        -0.1336    7.5946    0.1032 C.3       1 UNK        -0.1800 
     15 H15        13.8693    2.0492    0.9772 H         1 UNK         0.0600 
     16 H16        13.8919    1.8621   -0.7760 H         1 UNK         0.0600 
     17 H17        14.7691    0.0004   -0.4335 H         1 UNK         0.4180 
     18 H18         9.1184    0.5708   -0.7504 H         1 UNK         0.0600 
     19 H19         9.1102    0.5665    1.0044 H         1 UNK         0.0600 
     20 H20         9.0519    3.0855    1.0070 H         1 UNK         0.0600 
     21 H21         9.0601    3.0898   -0.7412 H         1 UNK         0.0600 
     22 H22         6.8817    1.8499   -0.7539 H         1 UNK         0.0600 
     23 H23         6.8736    1.8456    0.9933 H         1 UNK         0.0600 
     24 H24         6.8372    4.3535    0.9994 H         1 UNK         0.0600 
     25 H25         6.8451    4.3579   -0.7478 H         1 UNK         0.0600 
     26 H26         4.6642    3.1195   -0.7608 H         1 UNK         0.0600 
     27 H27         4.6563    3.1149    0.9864 H         1 UNK         0.0600 
     28 H28         4.6199    5.6227    0.9928 H         1 UNK         0.0600 
     29 H29         4.6278    5.6274   -0.7544 H         1 UNK         0.0600 
     30 H30         2.4468    4.3889   -0.7676 H         1 UNK         0.0600 
     31 H31         2.4389    4.3842    0.9796 H         1 UNK         0.0600 
     32 H32         2.4024    6.8922    0.9864 H         1 UNK         0.0600 
     33 H33         2.4104    6.8970   -0.7608 H         1 UNK         0.0600 
     34 H34         0.2257    5.6610   -0.7741 H         1 UNK         0.0600 
     35 H35         0.2177    5.6561    0.9728 H         1 UNK         0.0600 
     36 H36        -1.2185    7.4878    0.0979 H         1 UNK         0.0600 
     37 H37         0.1395    8.1705    0.9878 H         1 UNK         0.0600 
     38 H38         0.1476    8.1755   -0.7757 H         1 UNK         0.0600 
@<TRIPOS>BOND
     1    1    2 1    
     2    1    3 1    
     3    1   15 1    
     4    1   16 1    
     5    2   17 1    
     6    3    4 3    
     7    4    5 1    
     8    5    6 1    
     9    5   18 1    
    10    5   19 1    
    11    6    7 1    
    12    6   20 1    
    13    6   21 1    
    14    7    8 1    
    15    7   22 1    
    16    7   23 1    
    17    8    9 1    
    18    8   24 1    
    19    8   25 1    
    20    9   10 1    
    21    9   26 1    
    22    9   27 1    
    23   10   11 1    
    24   10   28 1    
    25   10   29 1    
    26   11   12 1    
    27   11   30 1    
    28   11   31 1    
    29   12   13 1    
    30   12   32 1    
    31   12   33 1    
    32   13   14 1    
    33   13   34 1    
    34   13   35 1    
    35   14   36 1    
    36   14   37 1    
    37   14   38 1    
@<TRIPOS>SUBSTRUCTURE
     1 UNK         1 GROUP             0       ****    0 ROOT    
