@<TRIPOS>MOLECULE
title: molecule 1
19   19    1
SMALL
USER_CHARGES


@<TRIPOS>ATOM
      1 C1         -0.0913   -2.2022    0.1380 C.3       1 UNK        -0.0650 
      2 C2          1.4324   -2.2033    0.1047 C.ar      1 UNK        -0.1150 
      3 C3          2.1444   -0.9765    0.0709 C.ar      1 UNK        -0.1150 
      4 C4          2.1538   -3.4235    0.1176 C.ar      1 UNK         0.1500 
      5 C5          1.4165    0.3570    0.0730 C.3       1 UNK        -0.0650 
      6 C6          3.5549   -0.9826    0.0362 C.ar      1 UNK        -0.1150 
      7 C7          3.5617   -3.4158    0.0836 C.ar      1 UNK        -0.1150 
      8 O8          1.5119   -4.6280    0.1673 O.3       1 UNK        -0.5850 
      9 C9          4.2624   -2.1978    0.0410 C.ar      1 UNK        -0.1150 
     10 H10        -0.5188   -3.1724   -0.1115 H         1 UNK         0.0600 
     11 H11        -0.4429   -1.9241    1.1318 H         1 UNK         0.0600 
     12 H12        -0.4947   -1.4881   -0.5799 H         1 UNK         0.0600 
     13 H13         2.1118    1.1890    0.1891 H         1 UNK         0.0600 
     14 H14         0.8787    0.4983   -0.8647 H         1 UNK         0.0600 
     15 H15         0.7021    0.4057    0.8951 H         1 UNK         0.0600 
     16 H16         4.1030   -0.0522    0.0071 H         1 UNK         0.1150 
     17 H17         4.1076   -4.3478    0.0919 H         1 UNK         0.1150 
     18 H18         0.5717   -4.5443    0.2005 H         1 UNK         0.4350 
     19 H19         5.3421   -2.1957    0.0152 H         1 UNK         0.1150 
@<TRIPOS>BOND
     1    1    2 1    
     2    1   10 1    
     3    1   11 1    
     4    1   12 1    
     5    2    3 ar   
     6    2    4 ar   
     7    3    5 1    
     8    3    6 ar   
     9    4    7 ar   
    10    4    8 1    
    11    5   13 1    
    12    5   14 1    
    13    5   15 1    
    14    6    9 ar   
    15    6   16 1    
    16    7    9 ar   
    17    7   17 1    
    18    8   18 1    
    19    9   19 1    
@<TRIPOS>SUBSTRUCTURE
     1 UNK         1 GROUP             0       ****    0 ROOT    
