@<TRIPOS>MOLECULE
title: molecule 1
22   22    1
SMALL
USER_CHARGES


@<TRIPOS>ATOM
      1 C1         -0.5982    1.8821    0.2033 C.3       1 UNK        -0.0650 
      2 C2          0.9258    1.8692    0.1409 C.ar      1 UNK        -0.1150 
      3 C3          1.6536    3.0885    0.1379 C.ar      1 UNK        -0.1150 
      4 C4          1.6300    0.6382    0.0693 C.ar      1 UNK        -0.1150 
      5 C5          0.9495    4.4342    0.1829 C.3       1 UNK        -0.0650 
      6 C6          3.0630    3.0667    0.0874 C.ar      1 UNK        -0.1150 
      7 C7          0.8994   -0.6938    0.0395 C.3       1 UNK        -0.0650 
      8 C8          3.0397    0.6351    0.0194 C.ar      1 UNK        -0.1150 
      9 C9          3.7556    1.8451    0.0309 C.ar      1 UNK         0.1500 
     10 O10         5.1192    1.8364   -0.0174 O.3       1 UNK        -0.5850 
     11 H11        -0.9936    1.0019    0.7084 H         1 UNK         0.0600 
     12 H12        -0.9773    2.7421    0.7539 H         1 UNK         0.0600 
     13 H13        -1.0125    1.9124   -0.8045 H         1 UNK         0.0600 
     14 H14         1.6469    5.2538    0.0069 H         1 UNK         0.0600 
     15 H15         0.1748    4.4907   -0.5822 H         1 UNK         0.0600 
     16 H16         0.4895    4.5904    1.1589 H         1 UNK         0.0600 
     17 H17         3.6205    3.9922    0.0896 H         1 UNK         0.1150 
     18 H18         0.1236   -0.6918   -0.7266 H         1 UNK         0.0600 
     19 H19         1.5802   -1.5160   -0.1831 H         1 UNK         0.0600 
     20 H20         0.4364   -0.8954    1.0057 H         1 UNK         0.0600 
     21 H21         3.5758   -0.3015   -0.0303 H         1 UNK         0.1150 
     22 H22         5.4840    0.9657   -0.0546 H         1 UNK         0.4350 
@<TRIPOS>BOND
     1    1    2 1    
     2    1   11 1    
     3    1   12 1    
     4    1   13 1    
     5    2    3 ar   
     6    2    4 ar   
     7    3    5 1    
     8    3    6 ar   
     9    4    7 1    
    10    4    8 ar   
    11    5   14 1    
    12    5   15 1    
    13    5   16 1    
    14    6    9 ar   
    15    6   17 1    
    16    7   18 1    
    17    7   19 1    
    18    7   20 1    
    19    8    9 ar   
    20    8   21 1    
    21    9   10 1    
    22   10   22 1    
@<TRIPOS>SUBSTRUCTURE
     1 UNK         1 GROUP             0       ****    0 ROOT    
