@<TRIPOS>MOLECULE
title: molecule 1
19   19    1
SMALL
USER_CHARGES


@<TRIPOS>ATOM
      1 C1          2.1520    0.4073    0.4779 C.3       1 UNK        -0.0650 
      2 C2          2.8181   -0.9438    0.2575 C.ar      1 UNK        -0.1150 
      3 C3          4.2259   -0.9729    0.1468 C.ar      1 UNK        -0.1150 
      4 C4          2.0845   -2.1638    0.1857 C.ar      1 UNK        -0.1150 
      5 C5          4.9110   -2.1907   -0.0138 C.ar      1 UNK        -0.1150 
      6 C6          2.7893   -3.3812    0.0458 C.ar      1 UNK        -0.1150 
      7 C7          0.5850   -2.2249    0.2910 C.2       1 UNK         0.6150 
      8 C8          4.1921   -3.3971   -0.0585 C.ar      1 UNK        -0.1150 
      9 N9         -0.1006   -1.3923   -0.4958 N.am      1 UNK        -0.7600 
     10 O10         0.0314   -3.0475    1.0173 O.2       1 UNK        -0.5000 
     11 H11         1.3935    0.3496    1.2590 H         1 UNK         0.0600 
     12 H12         2.8789    1.1585    0.7883 H         1 UNK         0.0600 
     13 H13         1.6845    0.7585   -0.4419 H         1 UNK         0.0600 
     14 H14         4.7929   -0.0546    0.1943 H         1 UNK         0.1150 
     15 H15         5.9881   -2.1993   -0.0938 H         1 UNK         0.1150 
     16 H16         2.2511   -4.3176    0.0071 H         1 UNK         0.1150 
     17 H17         4.7154   -4.3350   -0.1735 H         1 UNK         0.1150 
     18 H18        -1.1096   -1.4121   -0.4834 H         1 UNK         0.3800 
     19 H19         0.3934   -0.7553   -1.1031 H         1 UNK         0.3800 
@<TRIPOS>BOND
     1    1    2 1    
     2    1   11 1    
     3    1   12 1    
     4    1   13 1    
     5    2    3 ar   
     6    2    4 ar   
     7    3    5 ar   
     8    3   14 1    
     9    4    6 ar   
    10    4    7 1    
    11    5    8 ar   
    12    5   15 1    
    13    6    8 ar   
    14    6   16 1    
    15    7    9 am   BACKBONE|DICT|INTERRES
    16    7   10 2    
    17    8   17 1    
    18    9   18 1    
    19    9   19 1    
@<TRIPOS>SUBSTRUCTURE
     1 UNK         1 GROUP             0       ****    0 ROOT    
