@<TRIPOS>MOLECULE
title: molecule 1
17   17    1
SMALL
USER_CHARGES


@<TRIPOS>ATOM
      1 C1          2.0702   -2.2333    0.1038 C.ar      1 UNK        -0.1150 
      2 C2          0.5853   -2.3076    0.1296 C.2       1 UNK         0.5650 
      3 C3          2.7603   -0.9902    0.0910 C.ar      1 UNK        -0.1150 
      4 C4          2.8130   -3.4369    0.0917 C.ar      1 UNK        -0.1150 
      5 O5         -0.0584   -3.3561    0.1414 O.2       1 UNK        -0.4500 
      6 C6          2.0261    0.3425    0.1029 C.3       1 UNK        -0.0650 
      7 C7          4.1722   -0.9784    0.0665 C.ar      1 UNK        -0.1150 
      8 C8          4.2198   -3.4124    0.0673 C.ar      1 UNK        -0.1150 
      9 C9          4.9000   -2.1824    0.0547 C.ar      1 UNK        -0.1150 
     10 H10         0.0752   -1.3452    0.1378 H         1 UNK         0.0000 
     11 H11         2.3104   -4.3936    0.1010 H         1 UNK         0.1150 
     12 H12         2.7229    1.1812    0.0903 H         1 UNK         0.0600 
     13 H13         1.3825    0.4344   -0.7724 H         1 UNK         0.0600 
     14 H14         1.4132    0.4356    0.9999 H         1 UNK         0.0600 
     15 H15         4.7081   -0.0405    0.0566 H         1 UNK         0.1150 
     16 H16         4.7764   -4.3380    0.0582 H         1 UNK         0.1150 
     17 H17         5.9797   -2.1616    0.0359 H         1 UNK         0.1150 
@<TRIPOS>BOND
     1    1    2 1    
     2    1    3 ar   
     3    1    4 ar   
     4    2    5 2    
     5    2   10 1    
     6    3    6 1    
     7    3    7 ar   
     8    4    8 ar   
     9    4   11 1    
    10    6   12 1    
    11    6   13 1    
    12    6   14 1    
    13    7    9 ar   
    14    7   15 1    
    15    8    9 ar   
    16    8   16 1    
    17    9   17 1    
@<TRIPOS>SUBSTRUCTURE
     1 UNK         1 GROUP             0       ****    0 ROOT    
