@<TRIPOS>MOLECULE
title: molecule 1
20   19    1
SMALL
USER_CHARGES


@<TRIPOS>ATOM
      1 Br1        -2.6119   -1.0403    1.5568 Br        1 UNK        -0.2039 
      2 C2         -2.3418    0.1702   -0.0014 C.3       1 UNK        -0.0889 
      3 C3         -0.9461    0.7765    0.0657 C.2       1 UNK         0.5100 
      4 O4          0.0251   -0.1673    0.0065 O.3       1 UNK        -0.3300 
      5 O5         -0.7874    1.9934    0.1543 O.2       1 UNK        -0.4300 
      6 C6          1.4294    0.1144    0.0656 C.3       1 UNK         0.2500 
      7 C7          2.0940   -1.2698   -0.0287 C.3       1 UNK        -0.1800 
      8 C8          1.8838    0.9722   -1.1350 C.3       1 UNK        -0.1800 
      9 C9          1.8161    0.7650    1.4115 C.3       1 UNK        -0.1800 
     10 H10        -3.1051    0.9477    0.0310 H         1 UNK         0.1464 
     11 H11        -2.4655   -0.4111   -0.9150 H         1 UNK         0.1464 
     12 H12         3.1812   -1.1926    0.0071 H         1 UNK         0.0600 
     13 H13         1.7830   -1.9160    0.7931 H         1 UNK         0.0600 
     14 H14         1.8307   -1.7740   -0.9593 H         1 UNK         0.0600 
     15 H15         2.9694    1.0730   -1.1539 H         1 UNK         0.0600 
     16 H16         1.5795    0.5216   -2.0802 H         1 UNK         0.0600 
     17 H17         1.4729    1.9808   -1.1023 H         1 UNK         0.0600 
     18 H18         2.8987    0.8562    1.5045 H         1 UNK         0.0600 
     19 H19         1.4032    1.7675    1.5203 H         1 UNK         0.0600 
     20 H20         1.4629    0.1691    2.2538 H         1 UNK         0.0600 
@<TRIPOS>BOND
     1    1    2 1    
     2    2    3 1    
     3    2   10 1    
     4    2   11 1    
     5    3    4 1    
     6    3    5 2    
     7    4    6 1    
     8    6    7 1    
     9    6    8 1    
    10    6    9 1    
    11    7   12 1    
    12    7   13 1    
    13    7   14 1    
    14    8   15 1    
    15    8   16 1    
    16    8   17 1    
    17    9   18 1    
    18    9   19 1    
    19    9   20 1    
@<TRIPOS>SUBSTRUCTURE
     1 UNK         1 GROUP             0       ****    0 ROOT    
