@<TRIPOS>MOLECULE
title: molecule 1
24   23    1
SMALL
USER_CHARGES


@<TRIPOS>ATOM
      1 C1         -0.9429    0.3447   -0.4670 C.3       1 UNK        -0.1800 
      2 C2         -1.3457   -0.1445    0.9285 C.3       1 UNK        -0.1200 
      3 C3         -0.7094    0.6873    2.0514 C.3       1 UNK        -0.1200 
      4 C4         -1.1129    0.1972    3.4498 C.3       1 UNK        -0.1200 
      5 C5         -0.4714    1.0356    4.5739 C.3       1 UNK        -0.0839 
      6 C6         -0.8336    0.5986    5.9902 C.2       1 UNK         0.3175 
      7 C7         -0.1832    1.4477    7.0756 C.3       1 UNK        -0.1439 
      8 N8         -1.6084   -0.3860    6.2163 N.2       1 UNK        -0.3962 
      9 O9         -1.7711   -0.5687    7.6236 O.3       1 UNK        -0.3836 
     10 H10        -1.4095   -0.2643   -1.2416 H         1 UNK         0.0600 
     11 H11        -1.2510    1.3784   -0.6263 H         1 UNK         0.0600 
     12 H12         0.1370    0.2906   -0.6070 H         1 UNK         0.0600 
     13 H13        -2.4320   -0.1129    1.0199 H         1 UNK         0.0600 
     14 H14        -1.0572   -1.1904    1.0390 H         1 UNK         0.0600 
     15 H15         0.3767    0.6550    1.9551 H         1 UNK         0.0600 
     16 H16        -0.9985    1.7327    1.9360 H         1 UNK         0.0600 
     17 H17        -2.1998    0.2305    3.5396 H         1 UNK         0.0600 
     18 H18        -0.8225   -0.8489    3.5587 H         1 UNK         0.0600 
     19 H19         0.6141    1.0022    4.4726 H         1 UNK         0.0600 
     20 H20        -0.7613    2.0802    4.4535 H         1 UNK         0.0600 
     21 H21         0.4501    0.8303    7.7133 H         1 UNK         0.0600 
     22 H22         0.4381    2.2327    6.6435 H         1 UNK         0.0600 
     23 H23        -0.9448    1.9236    7.6940 H         1 UNK         0.0600 
     24 H24        -2.3542   -1.3120    7.6563 H         1 UNK         0.3901 
@<TRIPOS>BOND
     1    1    2 1    
     2    1   10 1    
     3    1   11 1    
     4    1   12 1    
     5    2    3 1    
     6    2   13 1    
     7    2   14 1    
     8    3    4 1    
     9    3   15 1    
    10    3   16 1    
    11    4    5 1    
    12    4   17 1    
    13    4   18 1    
    14    5    6 1    
    15    5   19 1    
    16    5   20 1    
    17    6    7 1    
    18    6    8 2    
    19    7   21 1    
    20    7   22 1    
    21    7   23 1    
    22    8    9 1    
    23    9   24 1    
@<TRIPOS>SUBSTRUCTURE
     1 UNK         1 GROUP             0       ****    0 ROOT    
