@<TRIPOS>MOLECULE
title: molecule 1
19   18    1
SMALL
USER_CHARGES


@<TRIPOS>ATOM
      1 C1          2.0729   -0.0276    0.3821 C.3       1 UNK         0.1450 
      2 C2          0.7471    0.6281   -0.0426 C.3       1 UNK         0.2050 
      3 O3          2.3368   -1.1741   -0.3999 O.3       1 UNK        -0.6830 
      4 C4         -0.4850   -0.2416    0.2788 C.3       1 UNK        -0.1200 
      5 O5          0.6338    1.8543    0.6512 O.3       1 UNK        -0.6830 
      6 C6         -1.8022    0.3318   -0.2709 C.3       1 UNK        -0.1200 
      7 C7         -3.0033   -0.5749    0.0197 C.3       1 UNK        -0.1800 
      8 H8          2.9009    0.6700    0.2501 H         1 UNK         0.0600 
      9 H9          2.0504   -0.3053    1.4367 H         1 UNK         0.0600 
     10 H10         0.7798    0.8456   -1.1112 H         1 UNK         0.0600 
     11 H11         3.1596   -1.5458   -0.1206 H         1 UNK         0.4180 
     12 H12        -0.3412   -1.2353   -0.1470 H         1 UNK         0.0600 
     13 H13        -0.5649   -0.3850    1.3574 H         1 UNK         0.0600 
     14 H14        -0.1571    2.2868    0.3678 H         1 UNK         0.4180 
     15 H15        -1.9897    1.3157    0.1598 H         1 UNK         0.0600 
     16 H16        -1.7163    0.4773   -1.3483 H         1 UNK         0.0600 
     17 H17        -3.9211   -0.1442   -0.3811 H         1 UNK         0.0600 
     18 H18        -2.8731   -1.5587   -0.4321 H         1 UNK         0.0600 
     19 H19        -3.1417   -0.7136    1.0923 H         1 UNK         0.0600 
@<TRIPOS>BOND
     1    1    2 1    
     2    1    3 1    
     3    1    8 1    
     4    1    9 1    
     5    2    4 1    
     6    2    5 1    
     7    2   10 1    
     8    3   11 1    
     9    4    6 1    
    10    4   12 1    
    11    4   13 1    
    12    5   14 1    
    13    6    7 1    
    14    6   15 1    
    15    6   16 1    
    16    7   17 1    
    17    7   18 1    
    18    7   19 1    
@<TRIPOS>SUBSTRUCTURE
     1 UNK         1 GROUP             0       ****    0 ROOT    
