@<TRIPOS>MOLECULE
title: molecule 1
18   18    1
SMALL
USER_CHARGES


@<TRIPOS>ATOM
      1 C1          2.3484    3.0716    0.9131 C.ar      1 UNK        -0.1150 
      2 C2          1.5171    2.1392    0.2550 C.ar      1 UNK        -0.0779 
      3 C3          3.7474    2.9134    0.9032 C.ar      1 UNK        -0.1150 
      4 C4          2.1036    1.0362   -0.4152 C.ar      1 UNK         0.1800 
      5 C5          0.0099    2.3463    0.2794 C.3       1 UNK         0.1972 
      6 C6          4.3263    1.8198    0.2335 C.ar      1 UNK        -0.1150 
      7 C7          3.5054    0.8839   -0.4236 C.ar      1 UNK        -0.1150 
      8 N8          1.3191    0.0858   -1.0705 N.pl3     1 UNK        -0.9000 
      9 O9         -0.6481    1.4662    1.1662 O.3       1 UNK        -0.6333 
     10 H10         1.9148    3.9149    1.4304 H         1 UNK         0.1150 
     11 H11         4.3759    3.6315    1.4090 H         1 UNK         0.1150 
     12 H12        -0.2207    3.3708    0.5733 H         1 UNK         0.0480 
     13 H13        -0.3966    2.2154   -0.7239 H         1 UNK         0.0480 
     14 H14         5.3993    1.6976    0.2247 H         1 UNK         0.1150 
     15 H15         3.9585    0.0462   -0.9336 H         1 UNK         0.1150 
     16 H16         0.3298    0.0477   -0.8699 H         1 UNK         0.3600 
     17 H17         1.7373   -0.7842   -1.3667 H         1 UNK         0.3600 
     18 H18        -1.5737    1.6560    1.1473 H         1 UNK         0.4180 
@<TRIPOS>BOND
     1    1    2 ar   
     2    1    3 ar   
     3    1   10 1    
     4    2    4 ar   
     5    2    5 1    
     6    3    6 ar   
     7    3   11 1    
     8    4    7 ar   
     9    4    8 1    
    10    5    9 1    
    11    5   12 1    
    12    5   13 1    
    13    6    7 ar   
    14    6   14 1    
    15    7   15 1    
    16    8   16 1    
    17    8   17 1    
    18    9   18 1    
@<TRIPOS>SUBSTRUCTURE
     1 UNK         1 GROUP             0       ****    0 ROOT    
