@<TRIPOS>MOLECULE
title: molecule 1
25   25    1
SMALL
USER_CHARGES


@<TRIPOS>ATOM
      1 C1         -0.0579   -0.3504    1.2631 C.3       1 UNK        -0.1800 
      2 C2          0.5406   -0.8028   -0.0780 C.3       1 UNK         0.0550 
      3 C3          2.0613   -0.8756   -0.0186 C.ar      1 UNK        -0.1150 
      4 C4         -0.0723   -2.1290   -0.5543 C.3       1 UNK        -0.1800 
      5 C5          2.7060   -1.7773    0.8567 C.ar      1 UNK        -0.1150 
      6 C6          2.8418   -0.0361   -0.8423 C.ar      1 UNK        -0.1150 
      7 C7          4.1121   -1.8391    0.9070 C.ar      1 UNK        -0.1150 
      8 C8          4.2479   -0.0977   -0.7922 C.ar      1 UNK        -0.1150 
      9 C9          4.8885   -0.9995    0.0819 C.ar      1 UNK        -0.0779 
     10 C10         6.4026   -1.0625    0.1310 C.3       1 UNK         0.1972 
     11 O11         6.9713    0.0734    0.7460 O.3       1 UNK        -0.6333 
     12 H12        -1.1410   -0.2468    1.1932 H         1 UNK         0.0600 
     13 H13         0.1540   -1.0631    2.0605 H         1 UNK         0.0600 
     14 H14         0.3457    0.6167    1.5648 H         1 UNK         0.0600 
     15 H15         0.2749   -0.0456   -0.8170 H         1 UNK         0.0600 
     16 H16         0.3213   -2.4131   -1.5307 H         1 UNK         0.0600 
     17 H17         0.1383   -2.9432    0.1396 H         1 UNK         0.0600 
     18 H18        -1.1556   -2.0482   -0.6478 H         1 UNK         0.0600 
     19 H19         2.1245   -2.4262    1.4948 H         1 UNK         0.1150 
     20 H20         2.3668    0.6608   -1.5172 H         1 UNK         0.1150 
     21 H21         4.5912   -2.5325    1.5825 H         1 UNK         0.1150 
     22 H22         4.8356    0.5507   -1.4255 H         1 UNK         0.1150 
     23 H23         6.7257   -1.9544    0.6690 H         1 UNK         0.0480 
     24 H24         6.7910   -1.1471   -0.8845 H         1 UNK         0.0480 
     25 H25         7.9114   -0.0221    0.7443 H         1 UNK         0.4180 
@<TRIPOS>BOND
     1    1    2 1    
     2    1   12 1    
     3    1   13 1    
     4    1   14 1    
     5    2    3 1    
     6    2    4 1    
     7    2   15 1    
     8    3    5 ar   
     9    3    6 ar   
    10    4   16 1    
    11    4   17 1    
    12    4   18 1    
    13    5    7 ar   
    14    5   19 1    
    15    6    8 ar   
    16    6   20 1    
    17    7    9 ar   
    18    7   21 1    
    19    8    9 ar   
    20    8   22 1    
    21    9   10 1    
    22   10   11 1    
    23   10   23 1    
    24   10   24 1    
    25   11   25 1    
@<TRIPOS>SUBSTRUCTURE
     1 UNK         1 GROUP             0       ****    0 ROOT    
