@<TRIPOS>MOLECULE
title: molecule 1
17   17    1
SMALL
USER_CHARGES


@<TRIPOS>ATOM
      1 C1         -0.3740    2.1097   -0.5476 C.3       1 UNK        -0.1800 
      2 C2          0.5763    2.2003    0.6514 C.3       1 UNK        -0.0050 
      3 C3          1.9142    1.5435    0.3729 C.ar      1 UNK         0.1770 
      4 C4          2.9782    2.2833   -0.1821 C.ar      1 UNK        -0.4470 
      5 C5          2.1195    0.1781    0.6575 C.ar      1 UNK        -0.4470 
      6 C6          4.1998    1.6243   -0.4252 C.ar      1 UNK         0.4730 
      7 C7          3.3804   -0.3847    0.3760 C.ar      1 UNK         0.4730 
      8 N8          4.4046    0.3176   -0.1541 N.ar      1 UNK        -0.6780 
      9 H9         -1.3279    2.5878   -0.3243 H         1 UNK         0.0600 
     10 H10         0.0492    2.6030   -1.4231 H         1 UNK         0.0600 
     11 H11        -0.5756    1.0713   -0.8123 H         1 UNK         0.0600 
     12 H12         0.7386    3.2454    0.9176 H         1 UNK         0.0600 
     13 H13         0.1199    1.7287    1.5224 H         1 UNK         0.0600 
     14 H14         2.8640    3.3310   -0.4187 H         1 UNK         0.1550 
     15 H15         1.3311   -0.4272    1.0801 H         1 UNK         0.1550 
     16 H16         5.0349    2.1617   -0.8497 H         1 UNK         0.0120 
     17 H17         3.5709   -1.4276    0.5818 H         1 UNK         0.0120 
@<TRIPOS>BOND
     1    1    2 1    
     2    1    9 1    
     3    1   10 1    
     4    1   11 1    
     5    2    3 1    
     6    2   12 1    
     7    2   13 1    
     8    3    4 ar   
     9    3    5 ar   
    10    4    6 ar   
    11    4   14 1    
    12    5    7 ar   
    13    5   15 1    
    14    6    8 ar   
    15    6   16 1    
    16    7    8 ar   
    17    7   17 1    
@<TRIPOS>SUBSTRUCTURE
     1 UNK         1 GROUP             0       ****    0 ROOT    
