@<TRIPOS>MOLECULE
title: molecule 1
13   13    1
SMALL
USER_CHARGES


@<TRIPOS>ATOM
      1 I1         -1.3842    1.0669    0.1561 I         1 UNK        -0.1000 
      2 C2          0.7062    1.0205    0.1302 C.ar      1 UNK         0.1000 
      3 C3          1.4383    2.2226    0.1900 C.ar      1 UNK        -0.1150 
      4 C4          1.3825   -0.2128    0.0529 C.ar      1 UNK        -0.1150 
      5 C5          2.8467    2.1920    0.1726 C.ar      1 UNK        -0.1150 
      6 C6          2.7908   -0.2440    0.0355 C.ar      1 UNK        -0.1150 
      7 C7          3.5236    0.9581    0.0953 C.ar      1 UNK         0.1500 
      8 O8          4.8874    0.9245    0.0783 O.3       1 UNK        -0.5850 
      9 H9          0.9203    3.1684    0.2493 H         1 UNK         0.1150 
     10 H10         0.8223   -1.1350    0.0070 H         1 UNK         0.1150 
     11 H11         3.4024    3.1172    0.2188 H         1 UNK         0.1150 
     12 H12         3.3073   -1.1910   -0.0238 H         1 UNK         0.1150 
     13 H13         5.2821    1.7818    0.1224 H         1 UNK         0.4350 
@<TRIPOS>BOND
     1    1    2 1    
     2    2    3 ar   
     3    2    4 ar   
     4    3    5 ar   
     5    3    9 1    
     6    4    6 ar   
     7    4   10 1    
     8    5    7 ar   
     9    5   11 1    
    10    6    7 ar   
    11    6   12 1    
    12    7    8 1    
    13    8   13 1    
@<TRIPOS>SUBSTRUCTURE
     1 UNK         1 GROUP             0       ****    0 ROOT    
