@<TRIPOS>MOLECULE
title: molecule 1
15   14    1
SMALL
USER_CHARGES


@<TRIPOS>ATOM
      1 C1          2.3107    2.2499    1.5062 C.3       1 UNK        -0.1200 
      2 C2          1.1691    1.3650    2.0189 C.2       1 UNK         0.5000 
      3 C3          3.3720    2.5731    2.5744 C.3       1 UNK        -0.1200 
      4 N4          0.1868    1.0995    1.1558 N.am      1 UNK        -0.7600 
      5 O5          1.1620    0.9237    3.1664 O.2       1 UNK        -0.5000 
      6 C6          4.4926    3.4687    2.0342 C.3       1 UNK        -0.1800 
      7 H7          1.8830    3.1774    1.1231 H         1 UNK         0.0600 
      8 H8          2.7821    1.7478    0.6604 H         1 UNK         0.0600 
      9 H9          2.9021    3.0668    3.4263 H         1 UNK         0.0600 
     10 H10         3.8089    1.6485    2.9545 H         1 UNK         0.0600 
     11 H11        -0.5868    0.5203    1.4479 H         1 UNK         0.3800 
     12 H12         0.2188    1.4750    0.2194 H         1 UNK         0.3800 
     13 H13         5.2293    3.6793    2.8098 H         1 UNK         0.0600 
     14 H14         5.0123    2.9914    1.2030 H         1 UNK         0.0600 
     15 H15         4.0992    4.4225    1.6817 H         1 UNK         0.0600 
@<TRIPOS>BOND
     1    1    2 1    
     2    1    3 1    
     3    1    7 1    
     4    1    8 1    
     5    2    4 am   BACKBONE|DICT|INTERRES
     6    2    5 2    
     7    3    6 1    
     8    3    9 1    
     9    3   10 1    
    10    4   11 1    
    11    4   12 1    
    12    6   13 1    
    13    6   14 1    
    14    6   15 1    
@<TRIPOS>SUBSTRUCTURE
     1 UNK         1 GROUP             0       ****    0 ROOT    
