@<TRIPOS>MOLECULE
title: molecule 1
9   8    1
SMALL
USER_CHARGES


@<TRIPOS>ATOM
      1 C1          3.6221   -1.1179    0.1160 C.1       1 UNK         0.4600 
      2 N2          4.7785   -1.1181    0.1435 N.1       1 UNK        -0.5600 
      3 C3          2.1523   -1.1167    0.0810 C.3       1 UNK        -0.0200 
      4 C4          1.5653    0.2976    0.0729 C.3       1 UNK        -0.0060 
      5 Cl5        -0.2142    0.2250    0.0302 Cl        1 UNK        -0.2000 
      6 H6          1.8381   -1.6647   -0.8075 H         1 UNK         0.0600 
      7 H7          1.7963   -1.6720    0.9489 H         1 UNK         0.0600 
      8 H8          1.8558    0.8523    0.9655 H         1 UNK         0.1030 
      9 H9          1.8978    0.8596   -0.8003 H         1 UNK         0.1030 
@<TRIPOS>BOND
     1    1    2 3    
     2    1    3 1    
     3    3    4 1    
     4    3    6 1    
     5    3    7 1    
     6    4    5 1    
     7    4    8 1    
     8    4    9 1    
@<TRIPOS>SUBSTRUCTURE
     1 UNK         1 GROUP             0       ****    0 ROOT    
