@<TRIPOS>MOLECULE
title: molecule 1
14   13    1
SMALL
USER_CHARGES


@<TRIPOS>ATOM
      1 C1          0.6939   -0.0983    0.0852 C.3       1 UNK        -0.1200 
      2 C2          1.9991    0.7091    0.1131 C.3       1 UNK        -0.1200 
      3 C3         -0.5512    0.7955    0.0838 C.3       1 UNK        -0.1800 
      4 C4          3.2427   -0.1861    0.1145 C.3       1 UNK         0.0800 
      5 I5          5.0629    1.0140    0.1546 I         1 UNK        -0.2000 
      6 H6          0.6779   -0.7375   -0.7983 H         1 UNK         0.0600 
      7 H7          0.6569   -0.7639    0.9483 H         1 UNK         0.0600 
      8 H8          2.0362    1.3745   -0.7501 H         1 UNK         0.0600 
      9 H9          2.0152    1.3480    0.9968 H         1 UNK         0.0600 
     10 H10        -1.4607    0.1947    0.0637 H         1 UNK         0.0600 
     11 H11        -0.5869    1.4230    0.9748 H         1 UNK         0.0600 
     12 H12        -0.5656    1.4497   -0.7884 H         1 UNK         0.0600 
     13 H13         3.2925   -0.8278    0.9946 H         1 UNK         0.0600 
     14 H14         3.3139   -0.8008   -0.7831 H         1 UNK         0.0600 
@<TRIPOS>BOND
     1    1    2 1    
     2    1    3 1    
     3    1    6 1    
     4    1    7 1    
     5    2    4 1    
     6    2    8 1    
     7    2    9 1    
     8    3   10 1    
     9    3   11 1    
    10    3   12 1    
    11    4    5 1    
    12    4   13 1    
    13    4   14 1    
@<TRIPOS>SUBSTRUCTURE
     1 UNK         1 GROUP             0       ****    0 ROOT    
