@<TRIPOS>MOLECULE
title: molecule 1
17   16    1
SMALL
USER_CHARGES


@<TRIPOS>ATOM
      1 C1          3.6411    1.3236    3.4363 C.3       1 UNK        -0.1200 
      2 C2          2.8367    1.8146    2.2241 C.3       1 UNK        -0.1200 
      3 C3          4.9991    2.0245    3.5630 C.3       1 UNK        -0.0060 
      4 C4          1.4766    1.1137    2.0956 C.3       1 UNK        -0.1200 
      5 Cl5         5.8800    1.4112    4.9852 Cl        1 UNK        -0.2000 
      6 C6          0.6737    1.6040    0.8856 C.3       1 UNK        -0.1800 
      7 H7          3.0640    1.4876    4.3471 H         1 UNK         0.0600 
      8 H8          3.7968    0.2468    3.3581 H         1 UNK         0.0600 
      9 H9          2.6832    2.8917    2.3030 H         1 UNK         0.0600 
     10 H10         3.4158    1.6512    1.3143 H         1 UNK         0.0600 
     11 H11         5.6215    1.8479    2.6854 H         1 UNK         0.1030 
     12 H12         4.8810    3.1016    3.6847 H         1 UNK         0.1030 
     13 H13         1.6260    0.0364    2.0143 H         1 UNK         0.0600 
     14 H14         0.8935    1.2766    3.0028 H         1 UNK         0.0600 
     15 H15        -0.2850    1.0890    0.8213 H         1 UNK         0.0600 
     16 H16         0.4727    2.6735    0.9532 H         1 UNK         0.0600 
     17 H17         1.2122    1.4215   -0.0447 H         1 UNK         0.0600 
@<TRIPOS>BOND
     1    1    2 1    
     2    1    3 1    
     3    1    7 1    
     4    1    8 1    
     5    2    4 1    
     6    2    9 1    
     7    2   10 1    
     8    3    5 1    
     9    3   11 1    
    10    3   12 1    
    11    4    6 1    
    12    4   13 1    
    13    4   14 1    
    14    6   15 1    
    15    6   16 1    
    16    6   17 1    
@<TRIPOS>SUBSTRUCTURE
     1 UNK         1 GROUP             0       ****    0 ROOT    
