@<TRIPOS>MOLECULE
title: molecule 1
22   22    1
SMALL
USER_CHARGES


@<TRIPOS>ATOM
      1 C1          3.9286    2.8113    0.0460 C.ar      1 UNK        -0.1150 
      2 C2          2.7114    3.5061   -0.0930 C.ar      1 UNK        -0.1150 
      3 C3          3.9629    1.4026    0.1296 C.ar      1 UNK         0.0900 
      4 C4          1.5110    2.7701   -0.1698 C.ar      1 UNK        -0.1150 
      5 C5          2.7127    5.0046   -0.2001 C.2       1 UNK         0.6150 
      6 C6          2.7466    0.6673    0.0541 C.ar      1 UNK         0.1800 
      7 N7          5.2760    0.7447    0.2800 N.pl3     1 UNK         0.6500 
      8 C8          1.5115    1.3604   -0.0897 C.ar      1 UNK         0.0900 
      9 N9          1.6539    5.6351    0.3150 N.am      1 UNK        -0.7600 
     10 O10         3.6656    5.6104   -0.6856 O.2       1 UNK        -0.5000 
     11 N11         2.7689   -0.7327    0.0769 N.pl3     1 UNK        -0.9000 
     12 O12         6.2102    1.1857   -0.3814 O.co2     1 UNK        -0.3700 
     13 O13         5.3811   -0.1855    1.0733 O.co2     1 UNK        -0.3700 
     14 N14         0.2162    0.6568   -0.1750 N.pl3     1 UNK         0.6500 
     15 O15         0.0041   -0.2812    0.5871 O.co2     1 UNK        -0.3700 
     16 O16        -0.6009    1.0707   -0.9909 O.co2     1 UNK        -0.3700 
     17 H17         4.8548    3.3664    0.0980 H         1 UNK         0.1150 
     18 H18         0.5698    3.2862   -0.2946 H         1 UNK         0.1150 
     19 H19         1.6160    6.6436    0.2882 H         1 UNK         0.3800 
     20 H20         0.9038    5.1068    0.7349 H         1 UNK         0.3800 
     21 H21         1.9062   -1.2390    0.2253 H         1 UNK         0.3600 
     22 H22         3.6088   -1.2091    0.3772 H         1 UNK         0.3600 
@<TRIPOS>BOND
     1    1    2 ar   
     2    1    3 ar   
     3    1   17 1    
     4    2    4 ar   
     5    2    5 1    
     6    3    6 ar   
     7    3    7 1    
     8    4    8 ar   
     9    4   18 1    
    10    5    9 am   BACKBONE|DICT|INTERRES
    11    5   10 2    
    12    6    8 ar   
    13    6   11 1    
    14    7   12 2    
    15    7   13 1    
    16    8   14 1    
    17    9   19 1    
    18    9   20 1    
    19   11   21 1    
    20   11   22 1    
    21   14   15 2    
    22   14   16 1    
@<TRIPOS>SUBSTRUCTURE
     1 UNK         1 GROUP             0       ****    0 ROOT    
