@<TRIPOS>MOLECULE
title: molecule 1
27   26    1
SMALL
USER_CHARGES


@<TRIPOS>ATOM
      1 C1         -0.5590   -0.4299    0.1165 C.3       1 UNK        -0.1800 
      2 C2          0.7904    0.2968    0.1130 C.3       1 UNK        -0.1200 
      3 C3          1.9817   -0.6719    0.1103 C.3       1 UNK        -0.1200 
      4 C4          3.3320    0.0556    0.1068 C.3       1 UNK         0.0475 
      5 S5          4.7168   -1.1143    0.1036 S.3       1 UNK        -0.3350 
      6 C6          6.1024    0.0547    0.0999 C.3       1 UNK         0.0475 
      7 C7          7.4523   -0.6737    0.0967 C.3       1 UNK        -0.1200 
      8 C8          8.6442    0.2942    0.0935 C.3       1 UNK        -0.1200 
      9 C9          9.9932   -0.4333    0.0904 C.3       1 UNK        -0.1800 
     10 H10        -1.3840    0.2828    0.1184 H         1 UNK         0.0600 
     11 H11        -0.6682   -1.0625   -0.7648 H         1 UNK         0.0600 
     12 H12        -0.6638   -1.0621    0.9987 H         1 UNK         0.0600 
     13 H13         0.8454    0.9471   -0.7608 H         1 UNK         0.0600 
     14 H14         0.8497    0.9475    0.9862 H         1 UNK         0.0600 
     15 H15         1.9235   -1.3218    0.9843 H         1 UNK         0.0600 
     16 H16         1.9191   -1.3222   -0.7631 H         1 UNK         0.0600 
     17 H17         3.4127    0.6969   -0.7714 H         1 UNK         0.0600 
     18 H18         3.4171    0.6974    0.9842 H         1 UNK         0.0600 
     19 H19         6.0178    0.6961   -0.7779 H         1 UNK         0.0600 
     20 H20         6.0222    0.6965    0.9778 H         1 UNK         0.0600 
     21 H21         7.5144   -1.3236    0.9705 H         1 UNK         0.0600 
     22 H22         7.5101   -1.3241   -0.7770 H         1 UNK         0.0600 
     23 H23         8.5853    0.9445   -0.7800 H         1 UNK         0.0600 
     24 H24         8.5896    0.9450    0.9670 H         1 UNK         0.0600 
     25 H25        10.8186    0.2788    0.0882 H         1 UNK         0.0600 
     26 H26        10.1019   -1.0656    0.9720 H         1 UNK         0.0600 
     27 H27        10.0975   -1.0660   -0.7915 H         1 UNK         0.0600 
@<TRIPOS>BOND
     1    1    2 1    
     2    1   10 1    
     3    1   11 1    
     4    1   12 1    
     5    2    3 1    
     6    2   13 1    
     7    2   14 1    
     8    3    4 1    
     9    3   15 1    
    10    3   16 1    
    11    4    5 1    
    12    4   17 1    
    13    4   18 1    
    14    5    6 1    
    15    6    7 1    
    16    6   19 1    
    17    6   20 1    
    18    7    8 1    
    19    7   21 1    
    20    7   22 1    
    21    8    9 1    
    22    8   23 1    
    23    8   24 1    
    24    9   25 1    
    25    9   26 1    
    26    9   27 1    
@<TRIPOS>SUBSTRUCTURE
     1 UNK         1 GROUP             0       ****    0 ROOT    
