@<TRIPOS>MOLECULE
title: molecule 1
20   19    1
SMALL
USER_CHARGES


@<TRIPOS>ATOM
      1 C1          2.7327    0.2555    0.0770 C.3       1 UNK        -0.1200 
      2 C2          1.2664    0.5356    0.3999 C.2       1 UNK         0.5100 
      3 C3          3.6253    1.4870    0.3000 C.3       1 UNK        -0.1200 
      4 O4          0.7011    1.3999   -0.4586 O.3       1 UNK        -0.3300 
      5 O5          0.7065   -0.0040    1.3544 O.2       1 UNK        -0.4300 
      6 C6          5.1028    1.1915    0.0097 C.3       1 UNK        -0.0095 
      7 C7         -0.6587    1.7608   -0.2904 C.3       1 UNK         0.1600 
      8 C8          6.0008    2.4141    0.2299 C.3       1 UNK        -0.1994 
      9 Br9         7.8904    1.9343   -0.1708 Br        1 UNK        -0.2039 
     10 H10         2.8048   -0.0782   -0.9584 H         1 UNK         0.0600 
     11 H11         3.0758   -0.5711    0.6999 H         1 UNK         0.0600 
     12 H12         3.2910    2.3069   -0.3374 H         1 UNK         0.0600 
     13 H13         3.5212    1.8329    1.3296 H         1 UNK         0.0600 
     14 H14         5.4435    0.3749    0.6473 H         1 UNK         0.0600 
     15 H15         5.2100    0.8465   -1.0194 H         1 UNK         0.0600 
     16 H16        -0.9538    2.4660   -1.0674 H         1 UNK         0.0300 
     17 H17        -1.3054    0.8854   -0.3617 H         1 UNK         0.0300 
     18 H18        -0.8182    2.2355    0.6786 H         1 UNK         0.0300 
     19 H19         5.7203    3.2405   -0.4238 H         1 UNK         0.1464 
     20 H20         5.9565    2.7633    1.2619 H         1 UNK         0.1464 
@<TRIPOS>BOND
     1    1    2 1    
     2    1    3 1    
     3    1   10 1    
     4    1   11 1    
     5    2    4 1    
     6    2    5 2    
     7    3    6 1    
     8    3   12 1    
     9    3   13 1    
    10    4    7 1    
    11    6    8 1    
    12    6   14 1    
    13    6   15 1    
    14    7   16 1    
    15    7   17 1    
    16    7   18 1    
    17    8    9 1    
    18    8   19 1    
    19    8   20 1    
@<TRIPOS>SUBSTRUCTURE
     1 UNK         1 GROUP             0       ****    0 ROOT    
