@<TRIPOS>MOLECULE
title: molecule 1
21   20    1
SMALL
USER_CHARGES


@<TRIPOS>ATOM
      1 C1         -1.1492    0.1544    0.2312 C.2       1 UNK         0.5100 
      2 C2         -2.2183    0.6059   -0.7614 C.3       1 UNK        -0.0200 
      3 O3         -1.4314   -0.2852    1.3470 O.2       1 UNK        -0.4300 
      4 O4          0.0902    0.2981   -0.2631 O.3       1 UNK        -0.3300 
      5 C5         -3.5870    0.4573   -0.2407 C.1       1 UNK         0.4600 
      6 C6          1.2073   -0.0736    0.5276 C.3       1 UNK         0.1900 
      7 N7         -4.6642    0.3416    0.1663 N.1       1 UNK        -0.5600 
      8 C8          2.4968    0.1865   -0.2595 C.3       1 UNK        -0.1200 
      9 C9          3.7527   -0.1937    0.5365 C.3       1 UNK        -0.1200 
     10 C10         5.0460    0.0639   -0.2449 C.3       1 UNK        -0.1800 
     11 H11        -2.0601    1.6536   -1.0169 H         1 UNK         0.0600 
     12 H12        -2.1348    0.0225   -1.6784 H         1 UNK         0.0600 
     13 H13         1.2104    0.5010    1.4550 H         1 UNK         0.0300 
     14 H14         1.1358   -1.1292    0.7939 H         1 UNK         0.0300 
     15 H15         2.4714   -0.3782   -1.1923 H         1 UNK         0.0600 
     16 H16         2.5455    1.2405   -0.5359 H         1 UNK         0.0600 
     17 H17         3.7787    0.3700    1.4697 H         1 UNK         0.0600 
     18 H18         3.7047   -1.2474    0.8138 H         1 UNK         0.0600 
     19 H19         5.9188   -0.2155    0.3457 H         1 UNK         0.0600 
     20 H20         5.0704   -0.5150   -1.1685 H         1 UNK         0.0600 
     21 H21         5.1452    1.1178   -0.5064 H         1 UNK         0.0600 
@<TRIPOS>BOND
     1    1    2 1    
     2    1    3 2    
     3    1    4 1    
     4    2    5 1    
     5    2   11 1    
     6    2   12 1    
     7    4    6 1    
     8    5    7 3    
     9    6    8 1    
    10    6   13 1    
    11    6   14 1    
    12    8    9 1    
    13    8   15 1    
    14    8   16 1    
    15    9   10 1    
    16    9   17 1    
    17    9   18 1    
    18   10   19 1    
    19   10   20 1    
    20   10   21 1    
@<TRIPOS>SUBSTRUCTURE
     1 UNK         1 GROUP             0       ****    0 ROOT    
