@<TRIPOS>MOLECULE
title: molecule 1
19   18    1
SMALL
USER_CHARGES


@<TRIPOS>ATOM
      1 C1          1.9002    1.8734    0.0961 C.3       1 UNK         0.0000 
      2 C2          2.4882    2.9348    1.0536 C.3       1 UNK        -0.1800 
      3 C3          0.8408    2.5498   -0.7982 C.3       1 UNK        -0.1800 
      4 C4          3.0410    1.3121   -0.7774 C.3       1 UNK        -0.1800 
      5 C5          1.2467    0.7252    0.9011 C.2       1 UNK         0.4700 
      6 C6          0.6070   -0.4254    0.1157 C.3       1 UNK        -0.0889 
      7 O7          1.2362    0.7275    2.1326 O.2       1 UNK        -0.4700 
      8 Br8        -0.1714   -1.7882    1.3464 Br        1 UNK        -0.2039 
      9 H9          3.2540    2.5103    1.7045 H         1 UNK         0.0600 
     10 H10         2.9530    3.7519    0.5008 H         1 UNK         0.0600 
     11 H11         1.7185    3.3741    1.6900 H         1 UNK         0.0600 
     12 H12         0.4651    1.8772   -1.5699 H         1 UNK         0.0600 
     13 H13        -0.0136    2.8967   -0.2152 H         1 UNK         0.0600 
     14 H14         1.2571    3.4179   -1.3106 H         1 UNK         0.0600 
     15 H15         2.6724    0.6356   -1.5490 H         1 UNK         0.0600 
     16 H16         3.5742    2.1145   -1.2886 H         1 UNK         0.0600 
     17 H17         3.7727    0.7668   -0.1794 H         1 UNK         0.0600 
     18 H18        -0.1959   -0.0574   -0.5219 H         1 UNK         0.1464 
     19 H19         1.3477   -0.9256   -0.5071 H         1 UNK         0.1464 
@<TRIPOS>BOND
     1    1    2 1    
     2    1    3 1    
     3    1    4 1    
     4    1    5 1    
     5    2    9 1    
     6    2   10 1    
     7    2   11 1    
     8    3   12 1    
     9    3   13 1    
    10    3   14 1    
    11    4   15 1    
    12    4   16 1    
    13    4   17 1    
    14    5    6 1    
    15    5    7 2    
    16    6    8 1    
    17    6   18 1    
    18    6   19 1    
@<TRIPOS>SUBSTRUCTURE
     1 UNK         1 GROUP             0       ****    0 ROOT    
