@<TRIPOS>MOLECULE
title: molecule 1
18   18    1
SMALL
USER_CHARGES


@<TRIPOS>ATOM
      1 O1         -0.8536    0.9055    0.1459 O.co2     1 UNK        -0.3700 
      2 N2         -0.3055    2.0029    0.1239 N.pl3     1 UNK         0.6500 
      3 O3         -0.9191    3.0653    0.1151 O.co2     1 UNK        -0.3700 
      4 C4          1.1701    2.0479    0.1073 C.ar      1 UNK         0.0900 
      5 C5          1.9277    0.8532    0.1166 C.ar      1 UNK        -0.1150 
      6 C6          1.8523    3.2855    0.0819 C.ar      1 UNK        -0.1150 
      7 C7          3.3374    0.8768    0.1010 C.ar      1 UNK         0.0850 
      8 C8          3.2585    3.3238    0.0661 C.ar      1 UNK        -0.1150 
      9 O9          3.9827   -0.3412    0.1118 O.3       1 UNK        -0.2850 
     10 C10         4.0005    2.1284    0.0755 C.ar      1 UNK        -0.1150 
     11 C11         5.4028   -0.3461    0.0965 C.3       1 UNK         0.1100 
     12 H12         1.4293   -0.1050    0.1360 H         1 UNK         0.1150 
     13 H13         1.3044    4.2165    0.0742 H         1 UNK         0.1150 
     14 H14         3.7706    4.2747    0.0467 H         1 UNK         0.1150 
     15 H15         5.0775    2.1986    0.0629 H         1 UNK         0.1150 
     16 H16         5.7589   -1.3761    0.1077 H         1 UNK         0.0300 
     17 H17         5.7937    0.1277   -0.8050 H         1 UNK         0.0300 
     18 H18         5.8130    0.1537    0.9751 H         1 UNK         0.0300 
@<TRIPOS>BOND
     1    1    2 1    
     2    2    3 2    
     3    2    4 1    
     4    4    5 ar   
     5    4    6 ar   
     6    5    7 ar   
     7    5   12 1    
     8    6    8 ar   
     9    6   13 1    
    10    7    9 1    
    11    7   10 ar   
    12    8   10 ar   
    13    8   14 1    
    14    9   11 1    
    15   10   15 1    
    16   11   16 1    
    17   11   17 1    
    18   11   18 1    
@<TRIPOS>SUBSTRUCTURE
     1 UNK         1 GROUP             0       ****    0 ROOT    
