@<TRIPOS>MOLECULE
title: molecule 1
15   14    1
SMALL
USER_CHARGES


@<TRIPOS>ATOM
      1 C1          3.4969    2.5091    2.6217 C.2       1 UNK         0.5000 
      2 N2          4.3330    3.4462    2.1695 N.am      1 UNK        -0.7600 
      3 O3          3.7552    1.8310    3.6139 O.2       1 UNK        -0.5000 
      4 C4          2.1858    2.3050    1.8507 C.3       1 UNK        -0.0600 
      5 C5          2.1103    0.8815    1.2742 C.3       1 UNK        -0.1800 
      6 C6          0.9746    2.6063    2.7487 C.3       1 UNK        -0.1800 
      7 H7          5.2047    3.6075    2.6523 H         1 UNK         0.3800 
      8 H8          4.0937    3.9875    1.3520 H         1 UNK         0.3800 
      9 H9          2.1659    3.0063    1.0149 H         1 UNK         0.0600 
     10 H10         1.2156    0.7555    0.6640 H         1 UNK         0.0600 
     11 H11         2.9709    0.6636    0.6405 H         1 UNK         0.0600 
     12 H12         2.0792    0.1296    2.0640 H         1 UNK         0.0600 
     13 H13         0.0443    2.5345    2.1847 H         1 UNK         0.0600 
     14 H14         0.9093    1.9065    3.5829 H         1 UNK         0.0600 
     15 H15         1.0283    3.6140    3.1626 H         1 UNK         0.0600 
@<TRIPOS>BOND
     1    1    2 am   BACKBONE|DICT|INTERRES
     2    1    3 2    
     3    1    4 1    
     4    2    7 1    
     5    2    8 1    
     6    4    5 1    
     7    4    6 1    
     8    4    9 1    
     9    5   10 1    
    10    5   11 1    
    11    5   12 1    
    12    6   13 1    
    13    6   14 1    
    14    6   15 1    
@<TRIPOS>SUBSTRUCTURE
     1 UNK         1 GROUP             0       ****    0 ROOT    
