@<TRIPOS>MOLECULE
title: molecule 1
17   16    1
SMALL
USER_CHARGES


@<TRIPOS>ATOM
      1 O1         -1.2722   -1.2229   -0.5229 O.2       1 UNK        -0.4700 
      2 C2         -0.9919   -0.0893   -0.1328 C.2       1 UNK         0.4700 
      3 C3          0.4021    0.4071   -0.0172 C.2       1 UNK         0.0000 
      4 C4         -2.1437    0.8370    0.2535 C.3       1 UNK        -0.1800 
      5 C5          1.4117   -0.4912    0.0169 C.2       1 UNK        -0.1150 
      6 C6          0.5808    1.9194    0.0539 C.3       1 UNK        -0.1800 
      7 C7          2.8950   -0.1997    0.1487 C.3       1 UNK        -0.1800 
      8 H8         -3.0693    0.2704    0.3576 H         1 UNK         0.0600 
      9 H9         -1.9386    1.3300    1.2037 H         1 UNK         0.0600 
     10 H10        -2.2941    1.5984   -0.5117 H         1 UNK         0.0600 
     11 H11         1.1863   -1.5459   -0.0593 H         1 UNK         0.1150 
     12 H12         1.5969    2.2323   -0.1773 H         1 UNK         0.0600 
     13 H13        -0.0642    2.4221   -0.6675 H         1 UNK         0.0600 
     14 H14         0.3324    2.2854    1.0505 H         1 UNK         0.0600 
     15 H15         3.3224   -0.8359    0.9237 H         1 UNK         0.0600 
     16 H16         3.4033   -0.4235   -0.7892 H         1 UNK         0.0600 
     17 H17         3.1108    0.8315    0.4205 H         1 UNK         0.0600 
@<TRIPOS>BOND
     1    1    2 2    
     2    2    3 1    
     3    2    4 1    
     4    3    5 2    
     5    3    6 1    
     6    4    8 1    
     7    4    9 1    
     8    4   10 1    
     9    5    7 1    
    10    5   11 1    
    11    6   12 1    
    12    6   13 1    
    13    6   14 1    
    14    7   15 1    
    15    7   16 1    
    16    7   17 1    
@<TRIPOS>SUBSTRUCTURE
     1 UNK         1 GROUP             0       ****    0 ROOT    
