@<TRIPOS>MOLECULE
title: molecule 1
24   25    1
SMALL
USER_CHARGES


@<TRIPOS>ATOM
      1 C1          4.7354    4.0351    1.0393 C.ar      1 UNK        -0.1150 
      2 C2          4.7450    5.5609    1.1019 C.3       1 UNK        -0.0650 
      3 C3          3.4970    3.3343    1.0335 C.ar      1 UNK         0.0000 
      4 C4          5.9520    3.3017    0.9863 C.ar      1 UNK        -0.1150 
      5 C5          3.4888    1.9152    0.9752 C.ar      1 UNK         0.0000 
      6 C6          2.2556    4.0158    1.0847 C.ar      1 UNK        -0.1150 
      7 C7          7.3067    3.9907    0.9894 C.3       1 UNK        -0.0650 
      8 C8          5.9230    1.8935    0.9289 C.ar      1 UNK        -0.1150 
      9 C9          4.7006    1.2028    0.9232 C.ar      1 UNK        -0.1150 
     10 C10         2.2698    1.2055    0.9687 C.ar      1 UNK        -0.1150 
     11 C11         1.0413    3.3030    1.0780 C.ar      1 UNK        -0.1150 
     12 C12         1.0470    1.8983    1.0200 C.ar      1 UNK        -0.1150 
     13 H13         5.7408    5.9988    1.1014 H         1 UNK         0.0600 
     14 H14         4.2145    5.9746    0.2439 H         1 UNK         0.0600 
     15 H15         4.2474    5.9018    2.0102 H         1 UNK         0.0600 
     16 H16         2.2075    5.0930    1.1300 H         1 UNK         0.1150 
     17 H17         7.4028    4.6508    0.1270 H         1 UNK         0.0600 
     18 H18         7.4359    4.5778    1.8990 H         1 UNK         0.0600 
     19 H19         8.1224    3.2684    0.9445 H         1 UNK         0.0600 
     20 H20         6.8443    1.3310    0.8885 H         1 UNK         0.1150 
     21 H21         4.6993    0.1233    0.8788 H         1 UNK         0.1150 
     22 H22         2.2671    0.1260    0.9243 H         1 UNK         0.1150 
     23 H23         0.1031    3.8367    1.1175 H         1 UNK         0.1150 
     24 H24         0.1150    1.3526    1.0150 H         1 UNK         0.1150 
@<TRIPOS>BOND
     1    1    2 1    
     2    1    3 ar   
     3    1    4 ar   
     4    2   13 1    
     5    2   14 1    
     6    2   15 1    
     7    3    5 ar   
     8    3    6 ar   
     9    4    7 1    
    10    4    8 ar   
    11    5    9 ar   
    12    5   10 ar   
    13    6   11 ar   
    14    6   16 1    
    15    7   17 1    
    16    7   18 1    
    17    7   19 1    
    18    8    9 ar   
    19    8   20 1    
    20    9   21 1    
    21   10   12 ar   
    22   10   22 1    
    23   11   12 ar   
    24   11   23 1    
    25   12   24 1    
@<TRIPOS>SUBSTRUCTURE
     1 UNK         1 GROUP             0       ****    0 ROOT    
