@<TRIPOS>MOLECULE
title: molecule 1
17   17    1
SMALL
USER_CHARGES


@<TRIPOS>ATOM
      1 O1          3.5552   -3.9574    0.2948 O.3       1 UNK        -0.5850 
      2 C2          3.5738   -2.5957    0.1512 C.ar      1 UNK         0.1500 
      3 C3          2.3455   -1.8828    0.0905 C.ar      1 UNK         0.0900 
      4 C4          4.8114   -1.8927    0.1009 C.ar      1 UNK         0.0900 
      5 N5          1.0420   -2.5714    0.1286 N.pl3     1 UNK         0.6500 
      6 C6          2.3641   -0.4746   -0.0015 C.ar      1 UNK        -0.1150 
      7 C7          4.7951   -0.4825    0.0034 C.ar      1 UNK        -0.1150 
      8 N8          6.1170   -2.5858    0.1597 N.pl3     1 UNK         0.6500 
      9 O9          0.8976   -3.5933   -0.5345 O.co2     1 UNK        -0.3700 
     10 O10         0.1519   -2.0620    0.8017 O.co2     1 UNK        -0.3700 
     11 C11         3.5816    0.2232   -0.0457 C.ar      1 UNK        -0.1150 
     12 O12         7.0729   -1.9670    0.6158 O.co2     1 UNK        -0.3700 
     13 O13         6.1972   -3.7364   -0.2586 O.co2     1 UNK        -0.3700 
     14 H14         4.4163   -4.3484    0.2511 H         1 UNK         0.4350 
     15 H15         1.4369    0.0784   -0.0451 H         1 UNK         0.1150 
     16 H16         5.7211    0.0726   -0.0364 H         1 UNK         0.1150 
     17 H17         3.5850    1.3009   -0.1198 H         1 UNK         0.1150 
@<TRIPOS>BOND
     1    1    2 1    
     2    1   14 1    
     3    2    3 ar   
     4    2    4 ar   
     5    3    5 1    
     6    3    6 ar   
     7    4    7 ar   
     8    4    8 1    
     9    5    9 1    
    10    5   10 2    
    11    6   11 ar   
    12    6   15 1    
    13    7   11 ar   
    14    7   16 1    
    15    8   12 1    
    16    8   13 2    
    17   11   17 1    
@<TRIPOS>SUBSTRUCTURE
     1 UNK         1 GROUP             0       ****    0 ROOT    
