@<TRIPOS>MOLECULE
title: molecule 1
13   13    1
SMALL
USER_CHARGES


@<TRIPOS>ATOM
      1 O1          1.3923   -4.5923    0.1031 O.3       1 UNK        -0.5850 
      2 C2          2.0796   -3.4108    0.1001 C.ar      1 UNK         0.1500 
      3 C3          1.3827   -2.1816    0.0886 C.ar      1 UNK         0.1800 
      4 C4          3.4905   -3.4210    0.1084 C.ar      1 UNK         0.1800 
      5 Cl5        -0.3484   -2.1736    0.0784 Cl        1 UNK        -0.1800 
      6 C6          2.0998   -0.9630    0.0854 C.ar      1 UNK         0.1800 
      7 C7          4.2021   -2.2070    0.1052 C.ar      1 UNK        -0.1150 
      8 Cl8         4.3591   -4.9146    0.1224 Cl        1 UNK        -0.1800 
      9 Cl9         1.2514    0.5457    0.0714 Cl        1 UNK        -0.1800 
     10 C10         3.5124   -0.9798    0.0938 C.ar      1 UNK         0.1800 
     11 Cl11        4.4184    0.4917    0.0902 Cl        1 UNK        -0.1800 
     12 H12         1.9612   -5.3474    0.1110 H         1 UNK         0.4350 
     13 H13         5.2823   -2.2168    0.1116 H         1 UNK         0.1150 
@<TRIPOS>BOND
     1    1    2 1    
     2    1   12 1    
     3    2    3 ar   
     4    2    4 ar   
     5    3    5 1    
     6    3    6 ar   
     7    4    7 ar   
     8    4    8 1    
     9    6    9 1    
    10    6   10 ar   
    11    7   10 ar   
    12    7   13 1    
    13   10   11 1    
@<TRIPOS>SUBSTRUCTURE
     1 UNK         1 GROUP             0       ****    0 ROOT    
