@<TRIPOS>MOLECULE
title: molecule 1
23   24    1
SMALL
USER_CHARGES


@<TRIPOS>ATOM
      1 C1          4.1563   -2.1842    0.0469 C.ar      1 UNK         0.0000 
      2 C2          4.8843   -1.0027    0.3212 C.ar      1 UNK        -0.1150 
      3 C3          4.8798   -3.3573   -0.2706 C.ar      1 UNK        -0.1150 
      4 C4          2.6798   -2.1926    0.0911 C.ar      1 UNK         0.0000 
      5 C5          6.2928   -0.9922    0.2800 C.ar      1 UNK         0.1500 
      6 C6          6.2875   -3.3519   -0.3139 C.ar      1 UNK        -0.1150 
      7 C7          1.9321   -1.0941   -0.3938 C.ar      1 UNK        -0.1150 
      8 C8          1.9753   -3.2996    0.6193 C.ar      1 UNK        -0.1150 
      9 O9          6.9778    0.1567    0.5498 O.3       1 UNK        -0.5850 
     10 C10         6.9958   -2.1685   -0.0384 C.ar      1 UNK        -0.1150 
     11 C11         0.5242   -1.1000   -0.3529 C.ar      1 UNK        -0.1150 
     12 C12         0.5675   -3.3100    0.6630 C.ar      1 UNK        -0.1150 
     13 C13        -0.1602   -2.2091    0.1762 C.ar      1 UNK        -0.1150 
     14 H14         4.3579   -0.0941    0.5746 H         1 UNK         0.1150 
     15 H15         4.3551   -4.2748   -0.4930 H         1 UNK         0.1150 
     16 H16         6.8235   -4.2566   -0.5604 H         1 UNK         0.1150 
     17 H17         2.4375   -0.2358   -0.8115 H         1 UNK         0.1150 
     18 H18         2.5148   -4.1520    1.0053 H         1 UNK         0.1150 
     19 H19         6.4146    0.8874    0.7539 H         1 UNK         0.4350 
     20 H20         8.0756   -2.1648   -0.0715 H         1 UNK         0.1150 
     21 H21        -0.0302   -0.2531   -0.7297 H         1 UNK         0.1150 
     22 H22         0.0465   -4.1632    1.0718 H         1 UNK         0.1150 
     23 H23        -1.2398   -2.2153    0.2086 H         1 UNK         0.1150 
@<TRIPOS>BOND
     1    1    2 ar   
     2    1    3 ar   
     3    1    4 1    
     4    2    5 ar   
     5    2   14 1    
     6    3    6 ar   
     7    3   15 1    
     8    4    7 ar   
     9    4    8 ar   
    10    5    9 1    
    11    5   10 ar   
    12    6   10 ar   
    13    6   16 1    
    14    7   11 ar   
    15    7   17 1    
    16    8   12 ar   
    17    8   18 1    
    18    9   19 1    
    19   10   20 1    
    20   11   13 ar   
    21   11   21 1    
    22   12   13 ar   
    23   12   22 1    
    24   13   23 1    
@<TRIPOS>SUBSTRUCTURE
     1 UNK         1 GROUP             0       ****    0 ROOT    
