@<TRIPOS>MOLECULE
title: molecule 1
15   15    1
SMALL
USER_CHARGES


@<TRIPOS>ATOM
      1 Br1         4.0920    0.1271    0.1415 Br        1 UNK        -0.2000 
      2 C2          2.1892    0.1191    0.1211 C.ar      1 UNK         0.2000 
      3 C3          1.4894   -1.1017    0.1066 C.ar      1 UNK        -0.1150 
      4 C4          1.4789    1.3339    0.1206 C.ar      1 UNK        -0.1150 
      5 C5          0.0809   -1.1075    0.0915 C.ar      1 UNK        -0.1150 
      6 C6          0.0703    1.3293    0.1056 C.ar      1 UNK        -0.1150 
      7 C7         -0.6438    0.1070    0.0909 C.ar      1 UNK        -0.1150 
      8 C8         -2.1485    0.0840    0.0747 C.2       1 UNK         0.6350 
      9 O9         -2.7391    1.3142    0.0756 O.3       1 UNK        -0.5300 
     10 O10        -2.7870   -0.9670    0.0618 O.2       1 UNK        -0.4400 
     11 H11         2.0323   -2.0353    0.1069 H         1 UNK         0.1150 
     12 H12         2.0144    2.2718    0.1318 H         1 UNK         0.1150 
     13 H13        -0.4369   -2.0559    0.0805 H         1 UNK         0.1150 
     14 H14        -0.4482    2.2770    0.1056 H         1 UNK         0.1150 
     15 H15        -3.6817    1.2548    0.0652 H         1 UNK         0.4500 
@<TRIPOS>BOND
     1    1    2 1    
     2    2    3 ar   
     3    2    4 ar   
     4    3    5 ar   
     5    3   11 1    
     6    4    6 ar   
     7    4   12 1    
     8    5    7 ar   
     9    5   13 1    
    10    6    7 ar   
    11    6   14 1    
    12    7    8 1    
    13    8    9 1    
    14    8   10 2    
    15    9   15 1    
@<TRIPOS>SUBSTRUCTURE
     1 UNK         1 GROUP             0       ****    0 ROOT    
