@<TRIPOS>MOLECULE
title: molecule 1
17   17    1
SMALL
USER_CHARGES


@<TRIPOS>ATOM
      1 C1          2.5461    3.6351    0.0773 C.ar      1 UNK        -0.1150 
      2 C2          2.5250    2.2220    0.1000 C.ar      1 UNK         0.0900 
      3 C3          3.7687    4.3309    0.0653 C.ar      1 UNK         0.1500 
      4 C4          3.7540    1.5210    0.1104 C.ar      1 UNK        -0.1150 
      5 N5          1.2421    1.4912    0.1127 N.pl3     1 UNK         0.6500 
      6 C6          4.9846    3.6225    0.0758 C.ar      1 UNK        -0.1150 
      7 O7          3.7717    5.6951    0.0434 O.3       1 UNK        -0.5850 
      8 C8          4.9902    2.2091    0.0985 C.ar      1 UNK         0.0900 
      9 O9          0.2024    2.1422    0.1030 O.co2     1 UNK        -0.3700 
     10 O10         1.2719    0.2649    0.1323 O.co2     1 UNK        -0.3700 
     11 N11         6.2652    1.4645    0.1096 N.pl3     1 UNK         0.6500 
     12 O12         7.3117    2.1047    0.0986 O.co2     1 UNK        -0.3700 
     13 O13         6.2225    0.2387    0.1293 O.co2     1 UNK        -0.3700 
     14 H14         1.6236    4.1976    0.0690 H         1 UNK         0.1150 
     15 H15         3.7482    0.4409    0.1278 H         1 UNK         0.1150 
     16 H16         5.9147    4.1721    0.0664 H         1 UNK         0.1150 
     17 H17         4.6395    6.0692    0.0368 H         1 UNK         0.4350 
@<TRIPOS>BOND
     1    1    2 ar   
     2    1    3 ar   
     3    1   14 1    
     4    2    4 ar   
     5    2    5 1    
     6    3    6 ar   
     7    3    7 1    
     8    4    8 ar   
     9    4   15 1    
    10    5    9 1    
    11    5   10 2    
    12    6    8 ar   
    13    6   16 1    
    14    7   17 1    
    15    8   11 1    
    16   11   12 1    
    17   11   13 2    
@<TRIPOS>SUBSTRUCTURE
     1 UNK         1 GROUP             0       ****    0 ROOT    
