@<TRIPOS>MOLECULE
title: molecule 1
12   12    1
SMALL
USER_CHARGES


@<TRIPOS>ATOM
      1 Br1         0.1433    0.1396    0.1455 Br        1 UNK        -0.2000 
      2 C2         -1.7591    0.1031    0.1729 C.ar      1 UNK         0.2000 
      3 C3         -2.4827    1.2840    0.4315 C.ar      1 UNK        -0.1150 
      4 C4         -2.4440   -1.1048   -0.0655 C.ar      1 UNK        -0.1150 
      5 C5         -3.8911    1.2570    0.4518 C.ar      1 UNK        -0.1150 
      6 C6         -3.8524   -1.1318   -0.0452 C.ar      1 UNK        -0.1150 
      7 C7         -4.5760    0.0491    0.2134 C.ar      1 UNK         0.1000 
      8 I8         -6.6665    0.0090    0.2435 I         1 UNK        -0.1000 
      9 H9         -1.9581    2.2102    0.6143 H         1 UNK         0.1150 
     10 H10        -1.8898   -2.0103   -0.2638 H         1 UNK         0.1150 
     11 H11        -4.4450    2.1628    0.6501 H         1 UNK         0.1150 
     12 H12        -4.3768   -2.0582   -0.2281 H         1 UNK         0.1150 
@<TRIPOS>BOND
     1    1    2 1    
     2    2    3 ar   
     3    2    4 ar   
     4    3    5 ar   
     5    3    9 1    
     6    4    6 ar   
     7    4   10 1    
     8    5    7 ar   
     9    5   11 1    
    10    6    7 ar   
    11    6   12 1    
    12    7    8 1    
@<TRIPOS>SUBSTRUCTURE
     1 UNK         1 GROUP             0       ****    0 ROOT    
