@<TRIPOS>MOLECULE
title: molecule 1
19   19    1
SMALL
USER_CHARGES


@<TRIPOS>ATOM
      1 O1         -0.0438   -0.2905    1.0380 O.3       1 UNK        -0.6333 
      2 C2          0.5263   -0.9578   -0.0672 C.3       1 UNK         0.1972 
      3 C3          2.0412   -0.9827   -0.0117 C.ar      1 UNK        -0.0779 
      4 C4          2.7242   -2.1777    0.2975 C.ar      1 UNK        -0.1150 
      5 C5          2.7759    0.1932   -0.2701 C.ar      1 UNK        -0.1150 
      6 C6          4.1319   -2.1961    0.3469 C.ar      1 UNK        -0.1150 
      7 C7          4.1834    0.1749   -0.2207 C.ar      1 UNK        -0.1150 
      8 C8          4.8654   -1.0197    0.0893 C.ar      1 UNK        -0.1150 
      9 C9          6.3792   -1.0405    0.1399 C.3       1 UNK        -0.0650 
     10 H10        -0.9842   -0.3054    0.9464 H         1 UNK         0.4180 
     11 H11         0.1342   -1.9747   -0.1069 H         1 UNK         0.0480 
     12 H12         0.2086   -0.4601   -0.9839 H         1 UNK         0.0480 
     13 H13         2.1718   -3.0838    0.4989 H         1 UNK         0.1150 
     14 H14         2.2597    1.1124   -0.5057 H         1 UNK         0.1150 
     15 H15         4.6461   -3.1162    0.5835 H         1 UNK         0.1150 
     16 H16         4.7370    1.0806   -0.4212 H         1 UNK         0.1150 
     17 H17         6.7716   -0.0692    0.4425 H         1 UNK         0.0600 
     18 H18         6.7344   -1.7846    0.8534 H         1 UNK         0.0600 
     19 H19         6.7846   -1.2845   -0.8422 H         1 UNK         0.0600 
@<TRIPOS>BOND
     1    1    2 1    
     2    1   10 1    
     3    2    3 1    
     4    2   11 1    
     5    2   12 1    
     6    3    4 ar   
     7    3    5 ar   
     8    4    6 ar   
     9    4   13 1    
    10    5    7 ar   
    11    5   14 1    
    12    6    8 ar   
    13    6   15 1    
    14    7    8 ar   
    15    7   16 1    
    16    8    9 1    
    17    9   17 1    
    18    9   18 1    
    19    9   19 1    
@<TRIPOS>SUBSTRUCTURE
     1 UNK         1 GROUP             0       ****    0 ROOT    
