@<TRIPOS>MOLECULE
title: molecule 1
24   23    1
SMALL
USER_CHARGES


@<TRIPOS>ATOM
      1 O1          5.4654   -0.3733   -0.1075 O.2       1 UNK        -0.4500 
      2 C2          4.4098   -0.1288    0.4725 C.2       1 UNK         0.4500 
      3 C3          3.1327    0.0449   -0.2262 C.2       1 UNK        -0.1150 
      4 C4          2.0058    0.3114    0.4557 C.2       1 UNK        -0.1150 
      5 C5          0.7249    0.4899   -0.1952 C.2       1 UNK        -0.1150 
      6 C6         -0.4041    0.7562    0.4812 C.2       1 UNK        -0.1150 
      7 C7         -1.7625    0.9506   -0.1605 C.3       1 UNK        -0.1200 
      8 C8         -2.7946   -0.0581    0.3625 C.3       1 UNK        -0.1200 
      9 C9         -4.1788    0.1322   -0.2741 C.3       1 UNK        -0.1200 
     10 C10        -5.2100   -0.8748    0.2472 C.3       1 UNK        -0.1800 
     11 H11         4.3658   -0.0260    1.5572 H         1 UNK         0.0000 
     12 H12         3.1249   -0.0477   -1.3028 H         1 UNK         0.1150 
     13 H13         2.0484    0.3976    1.5330 H         1 UNK         0.1150 
     14 H14         0.6751    0.4049   -1.2715 H         1 UNK         0.1150 
     15 H15        -0.3733    0.8455    1.5578 H         1 UNK         0.1150 
     16 H16        -2.0958    1.9678    0.0477 H         1 UNK         0.0600 
     17 H17        -1.6724    0.8646   -1.2443 H         1 UNK         0.0600 
     18 H18        -2.4418   -1.0716    0.1666 H         1 UNK         0.0600 
     19 H19        -2.8784    0.0357    1.4461 H         1 UNK         0.0600 
     20 H20        -4.5354    1.1443   -0.0791 H         1 UNK         0.0600 
     21 H21        -4.0998    0.0363   -1.3576 H         1 UNK         0.0600 
     22 H22        -6.1808   -0.7148   -0.2223 H         1 UNK         0.0600 
     23 H23        -4.9027   -1.8991    0.0348 H         1 UNK         0.0600 
     24 H24        -5.3426   -0.7806    1.3253 H         1 UNK         0.0600 
@<TRIPOS>BOND
     1    1    2 2    
     2    2    3 1    
     3    2   11 1    
     4    3    4 2    
     5    3   12 1    
     6    4    5 1    
     7    4   13 1    
     8    5    6 2    
     9    5   14 1    
    10    6    7 1    
    11    6   15 1    
    12    7    8 1    
    13    7   16 1    
    14    7   17 1    
    15    8    9 1    
    16    8   18 1    
    17    8   19 1    
    18    9   10 1    
    19    9   20 1    
    20    9   21 1    
    21   10   22 1    
    22   10   23 1    
    23   10   24 1    
@<TRIPOS>SUBSTRUCTURE
     1 UNK         1 GROUP             0       ****    0 ROOT    
