@<TRIPOS>MOLECULE
title: molecule 1
17   16    1
SMALL
USER_CHARGES


@<TRIPOS>ATOM
      1 C1          1.8466    0.7443    0.0855 C.3       1 UNK        -0.1200 
      2 C2          3.1076   -0.1263    0.1056 C.3       1 UNK         0.1900 
      3 C3          0.5591   -0.0906    0.1128 C.3       1 UNK        -0.1200 
      4 O4          4.2506    0.7091    0.0787 O.3       1 UNK        -0.3300 
      5 C5         -0.7052    0.7757    0.0928 C.3       1 UNK        -0.1800 
      6 C6          5.4615    0.1430    0.0905 C.2       1 UNK         0.5100 
      7 O7          6.5178    0.7703    0.0697 O.2       1 UNK        -0.4300 
      8 H8          1.8623    1.4207    0.9409 H         1 UNK         0.0600 
      9 H9          1.8567    1.3721   -0.8063 H         1 UNK         0.0600 
     10 H10         3.1233   -0.7456    1.0037 H         1 UNK         0.0300 
     11 H11         3.1176   -0.7946   -0.7568 H         1 UNK         0.0300 
     12 H12         0.5440   -0.7675   -0.7421 H         1 UNK         0.0600 
     13 H13         0.5496   -0.7190    1.0042 H         1 UNK         0.0600 
     14 H14        -1.6015    0.1553    0.1130 H         1 UNK         0.0600 
     15 H15        -0.7415    1.4401    0.9566 H         1 UNK         0.0600 
     16 H16        -0.7471    1.3911   -0.8062 H         1 UNK         0.0600 
     17 H17         5.3790   -0.9444    0.1210 H         1 UNK         0.0000 
@<TRIPOS>BOND
     1    1    2 1    
     2    1    3 1    
     3    1    8 1    
     4    1    9 1    
     5    2    4 1    
     6    2   10 1    
     7    2   11 1    
     8    3    5 1    
     9    3   12 1    
    10    3   13 1    
    11    4    6 1    
    12    5   14 1    
    13    5   15 1    
    14    5   16 1    
    15    6    7 2    
    16    6   17 1    
@<TRIPOS>SUBSTRUCTURE
     1 UNK         1 GROUP             0       ****    0 ROOT    
