@<TRIPOS>MOLECULE
title: molecule 1
17   16    1
SMALL
USER_CHARGES


@<TRIPOS>ATOM
      1 C1          1.3408    0.8495   -0.3518 C.3       1 UNK         0.0475 
      2 S2          2.7315   -0.2479    0.0276 S.3       1 UNK        -0.3350 
      3 C3          0.0082    0.1688   -0.1282 C.2       1 UNK        -0.1150 
      4 C4          4.1086    0.8670   -0.3506 C.3       1 UNK         0.0475 
      5 C5         -0.8875    0.5369    0.8003 C.2       1 UNK        -0.2300 
      6 C6          5.4496    0.2032   -0.1259 C.2       1 UNK        -0.1150 
      7 C7          6.3397    0.5827    0.8033 C.2       1 UNK        -0.2300 
      8 H8          1.4060    1.1709   -1.3914 H         1 UNK         0.0600 
      9 H9          1.4139    1.7422    0.2704 H         1 UNK         0.0600 
     10 H10        -0.2116   -0.6722   -0.7697 H         1 UNK         0.1150 
     11 H11         4.0402    1.1876   -1.3903 H         1 UNK         0.0600 
     12 H12         4.0236    1.7588    0.2715 H         1 UNK         0.0600 
     13 H13        -1.8218    0.0063    0.9108 H         1 UNK         0.1150 
     14 H14        -0.7010    1.3704    1.4616 H         1 UNK         0.1150 
     15 H15         5.6805   -0.6349   -0.7673 H         1 UNK         0.1150 
     16 H16         7.2805    0.0640    0.9146 H         1 UNK         0.1150 
     17 H17         6.1421    1.4137    1.4645 H         1 UNK         0.1150 
@<TRIPOS>BOND
     1    1    2 1    
     2    1    3 1    
     3    1    8 1    
     4    1    9 1    
     5    2    4 1    
     6    3    5 2    
     7    3   10 1    
     8    4    6 1    
     9    4   11 1    
    10    4   12 1    
    11    5   13 1    
    12    5   14 1    
    13    6    7 2    
    14    6   15 1    
    15    7   16 1    
    16    7   17 1    
@<TRIPOS>SUBSTRUCTURE
     1 UNK         1 GROUP             0       ****    0 ROOT    
