@<TRIPOS>MOLECULE
title: molecule 1
19   18    1
SMALL
USER_CHARGES


@<TRIPOS>ATOM
      1 C1          2.1739    2.4591    0.7277 C.3       1 UNK         0.2202 
      2 N2          2.5210    1.1884    0.1284 N.2       1 UNK        -0.4565 
      3 C3          3.4116    3.0059    1.4664 C.3       1 UNK        -0.1800 
      4 C4          1.0447    2.2181    1.7473 C.3       1 UNK        -0.1800 
      5 C5          1.7443    3.4648   -0.3724 C.3       1 UNK        -0.1200 
      6 C6          3.2698    0.6592   -0.6762 C.1       1 UNK         0.2438 
      7 C7          0.5222    3.0550   -1.2130 C.3       1 UNK        -0.1800 
      8 S8          4.2532    0.0760   -1.7846 S.2       1 UNK        -0.0075 
      9 H9          3.1897    3.9517    1.9616 H         1 UNK         0.0600 
     10 H10         3.7602    2.3101    2.2306 H         1 UNK         0.0600 
     11 H11         4.2418    3.1831    0.7814 H         1 UNK         0.0600 
     12 H12         0.1762    1.7443    1.2895 H         1 UNK         0.0600 
     13 H13         1.3752    1.5648    2.5558 H         1 UNK         0.0600 
     14 H14         0.7126    3.1540    2.1977 H         1 UNK         0.0600 
     15 H15         1.5357    4.4313    0.0880 H         1 UNK         0.0600 
     16 H16         2.5827    3.6385   -1.0486 H         1 UNK         0.0600 
     17 H17         0.3224    3.8000   -1.9832 H         1 UNK         0.0600 
     18 H18         0.6794    2.1009   -1.7160 H         1 UNK         0.0600 
     19 H19        -0.3774    2.9716   -0.6039 H         1 UNK         0.0600 
@<TRIPOS>BOND
     1    1    2 1    
     2    1    3 1    
     3    1    4 1    
     4    1    5 1    
     5    2    6 2    
     6    3    9 1    
     7    3   10 1    
     8    3   11 1    
     9    4   12 1    
    10    4   13 1    
    11    4   14 1    
    12    5    7 1    
    13    5   15 1    
    14    5   16 1    
    15    6    8 2    
    16    7   17 1    
    17    7   18 1    
    18    7   19 1    
@<TRIPOS>SUBSTRUCTURE
     1 UNK         1 GROUP             0       ****    0 ROOT    
