@<TRIPOS>MOLECULE
title: molecule 1
19   18    1
SMALL
USER_CHARGES


@<TRIPOS>ATOM
      1 C1          3.5940   -0.8832    0.0636 C.3       1 UNK        -0.1800 
      2 C2          2.0973   -0.9797    0.4103 C.3       1 UNK        -0.0600 
      3 C3          1.3988    0.3303   -0.0016 C.3       1 UNK        -0.1800 
      4 C4          1.4205   -2.2182   -0.2329 C.3       1 UNK         0.1200 
      5 C5          2.1105   -3.5531    0.0974 C.3       1 UNK        -0.1800 
      6 N6          0.0497   -2.3238    0.2351 N.3       1 UNK        -0.9000 
      7 H7          4.1594   -1.7205    0.4719 H         1 UNK         0.0600 
      8 H8          3.7505   -0.8649   -1.0154 H         1 UNK         0.0600 
      9 H9          4.0348    0.0244    0.4772 H         1 UNK         0.0600 
     10 H10         2.0222   -1.0689    1.4953 H         1 UNK         0.0600 
     11 H11         0.3543    0.3478    0.3097 H         1 UNK         0.0600 
     12 H12         1.8820    1.1943    0.4553 H         1 UNK         0.0600 
     13 H13         1.4254    0.4691   -1.0828 H         1 UNK         0.0600 
     14 H14         1.3958   -2.0953   -1.3164 H         1 UNK         0.0600 
     15 H15         1.5489   -4.3985   -0.3021 H         1 UNK         0.0600 
     16 H16         3.1074   -3.6065   -0.3393 H         1 UNK         0.0600 
     17 H17         2.2090   -3.6976    1.1740 H         1 UNK         0.0600 
     18 H18        -0.3837   -3.1445   -0.1632 H         1 UNK         0.3600 
     19 H19         0.0416   -2.4534    1.2366 H         1 UNK         0.3600 
@<TRIPOS>BOND
     1    1    2 1    
     2    1    7 1    
     3    1    8 1    
     4    1    9 1    
     5    2    3 1    
     6    2    4 1    
     7    2   10 1    
     8    3   11 1    
     9    3   12 1    
    10    3   13 1    
    11    4    5 1    
    12    4    6 1    
    13    4   14 1    
    14    5   15 1    
    15    5   16 1    
    16    5   17 1    
    17    6   18 1    
    18    6   19 1    
@<TRIPOS>SUBSTRUCTURE
     1 UNK         1 GROUP             0       ****    0 ROOT    
