@<TRIPOS>MOLECULE
title: molecule 1
15   14    1
SMALL
USER_CHARGES


@<TRIPOS>ATOM
      1 C1         -2.2459    0.8831   -0.0415 C.3       1 UNK        -0.1800 
      2 C2         -1.0986   -0.0720    0.2740 C.2       1 UNK         0.4700 
      3 C3          0.3231    0.3561   -0.1209 C.2       1 UNK         0.4700 
      4 O4         -1.3041   -1.1516    0.8273 O.2       1 UNK        -0.4700 
      5 C5          1.4678   -0.6121    0.2013 C.3       1 UNK        -0.1200 
      6 O6          0.5182    1.4389   -0.6743 O.2       1 UNK        -0.4700 
      7 C7          2.8498   -0.0978   -0.2303 C.3       1 UNK        -0.1800 
      8 H8         -3.1958    0.4619    0.2883 H         1 UNK         0.0600 
      9 H9         -2.0964    1.8363    0.4657 H         1 UNK         0.0600 
     10 H10        -2.3033    1.0658   -1.1146 H         1 UNK         0.0600 
     11 H11         1.4679   -0.8030    1.2748 H         1 UNK         0.0600 
     12 H12         1.2633   -1.5648   -0.2877 H         1 UNK         0.0600 
     13 H13         3.6245   -0.8220    0.0214 H         1 UNK         0.0600 
     14 H14         2.8935    0.0706   -1.3070 H         1 UNK         0.0600 
     15 H15         3.0998    0.8390    0.2690 H         1 UNK         0.0600 
@<TRIPOS>BOND
     1    1    2 1    
     2    1    8 1    
     3    1    9 1    
     4    1   10 1    
     5    2    3 1    
     6    2    4 2    
     7    3    5 1    
     8    3    6 2    
     9    5    7 1    
    10    5   11 1    
    11    5   12 1    
    12    7   13 1    
    13    7   14 1    
    14    7   15 1    
@<TRIPOS>SUBSTRUCTURE
     1 UNK         1 GROUP             0       ****    0 ROOT    
