@<TRIPOS>MOLECULE
title: molecule 1
23   23    1
SMALL
USER_CHARGES


@<TRIPOS>ATOM
      1 O1          4.9984    2.5057    1.0369 O.co2     1 UNK        -0.3700 
      2 N2          4.2720    2.5688    0.0511 N.pl3     1 UNK         0.6500 
      3 O3          4.5258    3.2138   -0.9603 O.co2     1 UNK        -0.3700 
      4 C4          3.0075    1.8181    0.0842 C.ar      1 UNK         0.0900 
      5 C5          3.0190    0.3997    0.1167 C.ar      1 UNK        -0.1150 
      6 C6          1.7672    2.5072    0.0846 C.ar      1 UNK        -0.1150 
      7 C7          4.3245   -0.3779    0.1057 C.3       1 UNK        -0.0650 
      8 C8          1.8022   -0.3124    0.1504 C.ar      1 UNK        -0.1150 
      9 C9          1.7097    4.0256    0.0649 C.3       1 UNK        -0.0650 
     10 C10         0.5592    1.7800    0.1142 C.ar      1 UNK        -0.1150 
     11 C11         0.5728    0.3729    0.1464 C.ar      1 UNK        -0.1150 
     12 C12        -0.7295   -0.4000    0.1834 C.3       1 UNK        -0.0650 
     13 H13         4.1515   -1.4437   -0.0458 H         1 UNK         0.0600 
     14 H14         4.9745   -0.0299   -0.6977 H         1 UNK         0.0600 
     15 H15         4.8482   -0.2536    1.0538 H         1 UNK         0.0600 
     16 H16         1.8100   -1.3925    0.1768 H         1 UNK         0.1150 
     17 H17         2.3566    4.4466    0.8350 H         1 UNK         0.0600 
     18 H18         2.0328    4.4050   -0.9048 H         1 UNK         0.0600 
     19 H19         0.6976    4.3878    0.2475 H         1 UNK         0.0600 
     20 H20        -0.3857    2.3039    0.1157 H         1 UNK         0.1150 
     21 H21        -1.5216    0.1471   -0.3286 H         1 UNK         0.0600 
     22 H22        -0.6207   -1.3694   -0.3040 H         1 UNK         0.0600 
     23 H23        -1.0382   -0.5667    1.2155 H         1 UNK         0.0600 
@<TRIPOS>BOND
     1    1    2 1    
     2    2    3 2    
     3    2    4 1    
     4    4    5 ar   
     5    4    6 ar   
     6    5    7 1    
     7    5    8 ar   
     8    6    9 1    
     9    6   10 ar   
    10    7   13 1    
    11    7   14 1    
    12    7   15 1    
    13    8   11 ar   
    14    8   16 1    
    15    9   17 1    
    16    9   18 1    
    17    9   19 1    
    18   10   11 ar   
    19   10   20 1    
    20   11   12 1    
    21   12   21 1    
    22   12   22 1    
    23   12   23 1    
@<TRIPOS>SUBSTRUCTURE
     1 UNK         1 GROUP             0       ****    0 ROOT    
