@<TRIPOS>MOLECULE
title: molecule 1
23   24    1
SMALL
USER_CHARGES


@<TRIPOS>ATOM
      1 O1         -1.5669   -2.2669    0.1575 O.3       1 UNK        -0.5850 
      2 C2         -0.8765   -1.0842    0.1163 C.ar      1 UNK         0.1500 
      3 C3          0.5419   -1.1087    0.1272 C.ar      1 UNK         0.0000 
      4 C4         -1.5681    0.1560    0.0835 C.ar      1 UNK         0.0900 
      5 C5          1.2821    0.1061    0.1002 C.ar      1 UNK         0.0000 
      6 C6          1.2344   -2.3433    0.1715 C.ar      1 UNK        -0.1150 
      7 N7         -3.0450    0.2402    0.0812 N.pl3     1 UNK         0.6500 
      8 C8         -0.8192    1.3515    0.0578 C.ar      1 UNK        -0.1150 
      9 C9          0.5890    1.3437    0.0536 C.ar      1 UNK         0.0900 
     10 C10         2.6977    0.0517    0.1377 C.ar      1 UNK        -0.1150 
     11 C11         2.6397   -2.3803    0.1969 C.ar      1 UNK        -0.1150 
     12 O12        -3.5605    1.2494    0.5510 O.co2     1 UNK        -0.3700 
     13 O13        -3.6920   -0.6855   -0.3980 O.co2     1 UNK        -0.3700 
     14 N14         1.2885    2.6365   -0.0004 N.pl3     1 UNK         0.6500 
     15 C15         3.3713   -1.1819    0.1832 C.ar      1 UNK        -0.1150 
     16 O16         2.0619    2.8365   -0.9309 O.co2     1 UNK        -0.3700 
     17 O17         1.0264    3.4568    0.8722 O.co2     1 UNK        -0.3700 
     18 H18        -2.5032   -2.1528    0.0770 H         1 UNK         0.4350 
     19 H19         0.6982   -3.2807    0.1896 H         1 UNK         0.1150 
     20 H20        -1.3314    2.3025    0.0245 H         1 UNK         0.1150 
     21 H21         3.2954    0.9502    0.1389 H         1 UNK         0.1150 
     22 H22         3.1552   -3.3288    0.2321 H         1 UNK         0.1150 
     23 H23         4.4508   -1.2076    0.2096 H         1 UNK         0.1150 
@<TRIPOS>BOND
     1    1    2 1    
     2    1   18 1    
     3    2    3 ar   
     4    2    4 ar   
     5    3    5 ar   
     6    3    6 ar   
     7    4    7 1    
     8    4    8 ar   
     9    5    9 ar   
    10    5   10 ar   
    11    6   11 ar   
    12    6   19 1    
    13    7   12 1    
    14    7   13 2    
    15    8    9 ar   
    16    8   20 1    
    17    9   14 1    
    18   10   15 ar   
    19   10   21 1    
    20   11   15 ar   
    21   11   22 1    
    22   14   16 1    
    23   14   17 2    
    24   15   23 1    
@<TRIPOS>SUBSTRUCTURE
     1 UNK         1 GROUP             0       ****    0 ROOT    
