@<TRIPOS>MOLECULE
title: molecule 1
28   30    1
SMALL
USER_CHARGES


@<TRIPOS>ATOM
      1 C1          3.6027    1.5670    5.0432 C.ar      1 UNK         0.0000 
      2 C2          3.1406    1.3619    3.7141 C.ar      1 UNK         0.0000 
      3 C3          4.9374    1.2314    5.3594 C.ar      1 UNK        -0.1150 
      4 C4          2.7496    2.1153    6.1126 C.ar      1 UNK         0.0000 
      5 C5          4.0161    0.8142    2.7375 C.ar      1 UNK         0.0000 
      6 C6          1.8206    1.7011    3.3292 C.ar      1 UNK        -0.1150 
      7 C7          5.8016    0.6915    4.3903 C.ar      1 UNK        -0.1150 
      8 C8          1.6724    1.3654    6.6348 C.ar      1 UNK        -0.1150 
      9 C9          3.0070    3.3969    6.6465 C.ar      1 UNK        -0.1150 
     10 C10         5.3408    0.4798    3.0802 C.ar      1 UNK        -0.1150 
     11 C11         3.5686    0.6036    1.4165 C.ar      1 UNK        -0.1150 
     12 C12         1.3797    1.4897    2.0089 C.ar      1 UNK        -0.1150 
     13 C13         0.8627    1.8883    7.6617 C.ar      1 UNK        -0.1150 
     14 C14         2.2000    3.9236    7.6738 C.ar      1 UNK        -0.1150 
     15 C15         2.2519    0.9395    1.0528 C.ar      1 UNK        -0.1150 
     16 C16         1.1259    3.1694    8.1817 C.ar      1 UNK        -0.1150 
     17 H17         5.3041    1.3841    6.3642 H         1 UNK         0.1150 
     18 H18         1.1273    2.1309    4.0364 H         1 UNK         0.1150 
     19 H19         6.8179    0.4380    4.6535 H         1 UNK         0.1150 
     20 H20         1.4642    0.3803    6.2431 H         1 UNK         0.1150 
     21 H21         3.8294    3.9835    6.2633 H         1 UNK         0.1150 
     22 H22         6.0095    0.0638    2.3405 H         1 UNK         0.1150 
     23 H23         4.2341    0.1854    0.6751 H         1 UNK         0.1150 
     24 H24         0.3699    1.7520    1.7296 H         1 UNK         0.1150 
     25 H25         0.0406    1.3058    8.0507 H         1 UNK         0.1150 
     26 H26         2.4059    4.9063    8.0719 H         1 UNK         0.1150 
     27 H27         1.9125    0.7781    0.0402 H         1 UNK         0.1150 
     28 H28         0.5062    3.5719    8.9695 H         1 UNK         0.1150 
@<TRIPOS>BOND
     1    1    2 ar   
     2    1    3 ar   
     3    1    4 1    
     4    2    5 ar   
     5    2    6 ar   
     6    3    7 ar   
     7    3   17 1    
     8    4    8 ar   
     9    4    9 ar   
    10    5   10 ar   
    11    5   11 ar   
    12    6   12 ar   
    13    6   18 1    
    14    7   10 ar   
    15    7   19 1    
    16    8   13 ar   
    17    8   20 1    
    18    9   14 ar   
    19    9   21 1    
    20   10   22 1    
    21   11   15 ar   
    22   11   23 1    
    23   12   15 ar   
    24   12   24 1    
    25   13   16 ar   
    26   13   25 1    
    27   14   16 ar   
    28   14   26 1    
    29   15   27 1    
    30   16   28 1    
@<TRIPOS>SUBSTRUCTURE
     1 UNK         1 GROUP             0       ****    0 ROOT    
