@<TRIPOS>MOLECULE
title: molecule 1
26   25    1
SMALL
USER_CHARGES


@<TRIPOS>ATOM
      1 C1          5.4813   -0.3591   -0.2304 C.3       1 UNK        -0.1800 
      2 C2          4.2830   -1.1912    0.2419 C.3       1 UNK        -0.1200 
      3 C3          3.0326   -0.4189    0.3171 C.1       1 UNK         0.0000 
      4 C4          2.0011    0.2327    0.3735 C.1       1 UNK         0.0000 
      5 C5          0.7674    1.0340    0.4429 C.3       1 UNK         0.2050 
      6 O6         -0.2457    0.4313   -0.3343 O.3       1 UNK        -0.6830 
      7 C7          0.9853    2.5013    0.0085 C.3       1 UNK        -0.1200 
      8 C8         -0.0881    3.5066    0.4891 C.3       1 UNK        -0.0600 
      9 C9          0.4067    4.9498    0.3004 C.3       1 UNK        -0.1800 
     10 C10        -1.4502    3.3262   -0.2031 C.3       1 UNK        -0.1800 
     11 H11         6.3831   -0.9702   -0.2712 H         1 UNK         0.0600 
     12 H12         5.3137    0.0489   -1.2280 H         1 UNK         0.0600 
     13 H13         5.6778    0.4746    0.4451 H         1 UNK         0.0600 
     14 H14         4.1166   -2.0307   -0.4337 H         1 UNK         0.0600 
     15 H15         4.4785   -1.6075    1.2305 H         1 UNK         0.0600 
     16 H16         0.4580    1.0028    1.4881 H         1 UNK         0.0600 
     17 H17        -1.0578    0.4706    0.1472 H         1 UNK         0.4180 
     18 H18         1.9401    2.8346    0.4199 H         1 UNK         0.0600 
     19 H19         1.1009    2.5610   -1.0751 H         1 UNK         0.0600 
     20 H20        -0.2357    3.3586    1.5596 H         1 UNK         0.0600 
     21 H21        -0.3216    5.6691    0.6762 H         1 UNK         0.0600 
     22 H22         1.3397    5.1224    0.8376 H         1 UNK         0.0600 
     23 H23         0.5824    5.1736   -0.7523 H         1 UNK         0.0600 
     24 H24        -2.1492    4.1064    0.0994 H         1 UNK         0.0600 
     25 H25        -1.3531    3.3719   -1.2883 H         1 UNK         0.0600 
     26 H26        -1.9132    2.3749    0.0546 H         1 UNK         0.0600 
@<TRIPOS>BOND
     1    1    2 1    
     2    1   11 1    
     3    1   12 1    
     4    1   13 1    
     5    2    3 1    
     6    2   14 1    
     7    2   15 1    
     8    3    4 3    
     9    4    5 1    
    10    5    6 1    
    11    5    7 1    
    12    5   16 1    
    13    6   17 1    
    14    7    8 1    
    15    7   18 1    
    16    7   19 1    
    17    8    9 1    
    18    8   10 1    
    19    8   20 1    
    20    9   21 1    
    21    9   22 1    
    22    9   23 1    
    23   10   24 1    
    24   10   25 1    
    25   10   26 1    
@<TRIPOS>SUBSTRUCTURE
     1 UNK         1 GROUP             0       ****    0 ROOT    
