@<TRIPOS>MOLECULE
title: molecule 1
14   14    1
SMALL
USER_CHARGES


@<TRIPOS>ATOM
      1 C1          3.1075    0.2126    0.0948 C.ar      1 UNK        -0.1150 
      2 C2          3.1191    1.6213    0.0917 C.ar      1 UNK         0.2000 
      3 C3          1.8852   -0.4855    0.0947 C.ar      1 UNK        -0.1150 
      4 C4          1.9006    2.3384    0.0886 C.ar      1 UNK         0.1800 
      5 Br5         4.7929    2.5347    0.0920 Br        1 UNK        -0.2000 
      6 C6          0.6707    0.2258    0.0915 C.ar      1 UNK        -0.1150 
      7 C7          0.6744    1.6346    0.0885 C.ar      1 UNK         0.2000 
      8 N8          1.9082    3.7346    0.0855 N.pl3     1 UNK        -0.9000 
      9 Br9        -0.9893    2.5662    0.0842 Br        1 UNK        -0.2000 
     10 H10         4.0391   -0.3340    0.0972 H         1 UNK         0.1150 
     11 H11         1.8794   -1.5656    0.0970 H         1 UNK         0.1150 
     12 H12        -0.2668   -0.3105    0.0914 H         1 UNK         0.1150 
     13 H13         2.7733    4.2564    0.0855 H         1 UNK         0.3600 
     14 H14         1.0489    4.2658    0.0832 H         1 UNK         0.3600 
@<TRIPOS>BOND
     1    1    2 ar   
     2    1    3 ar   
     3    1   10 1    
     4    2    4 ar   
     5    2    5 1    
     6    3    6 ar   
     7    3   11 1    
     8    4    7 ar   
     9    4    8 1    
    10    6    7 ar   
    11    6   12 1    
    12    7    9 1    
    13    8   13 1    
    14    8   14 1    
@<TRIPOS>SUBSTRUCTURE
     1 UNK         1 GROUP             0       ****    0 ROOT    
