@<TRIPOS>MOLECULE
title: molecule 1
11   11    1
SMALL
USER_CHARGES


@<TRIPOS>ATOM
      1 S1          0.7741   -0.2114    0.2047 S.3       1 UNK         0.0328 
      2 C2          1.9442    1.0843    0.0898 C.cat     1 UNK         0.0263 
      3 C3         -0.5478    0.9238    0.2001 C.2       1 UNK        -0.3255 
      4 N4          3.3541    0.8422    0.0445 N.pl3     1 UNK         0.6500 
      5 C5          1.3204    2.3078    0.0521 C.2       1 UNK        -0.0738 
      6 C6         -0.1014    2.2159    0.1150 C.2       1 UNK        -0.0738 
      7 O7          3.7446   -0.3193    0.0886 O.co2     1 UNK        -0.3700 
      8 O8          4.1033    1.8100   -0.0362 O.co2     1 UNK        -0.3700 
      9 H9         -1.5669    0.5706    0.2601 H         1 UNK         0.2618 
     10 H10         1.8295    3.2579   -0.0179 H         1 UNK         0.1211 
     11 H11        -0.7376    3.0886    0.0960 H         1 UNK         0.1211 
@<TRIPOS>BOND
     1    1    2 1    
     2    1    3 1    
     3    2    4 ar   
     4    2    5 2    
     5    3    6 2    
     6    3    9 1    
     7    4    7 2    
     8    4    8 1    
     9    5    6 1    
    10    5   10 1    
    11    6   11 1    
@<TRIPOS>SUBSTRUCTURE
     1 UNK         1 GROUP             0       ****    0 ROOT    
