@<TRIPOS>MOLECULE
title: molecule 1
11   11    1
SMALL
USER_CHARGES


@<TRIPOS>ATOM
      1 O1         -0.6110    1.2713    0.0841 O.3       1 UNK        -0.1900 
      2 C2          0.1270    0.1283    0.0885 C.cat     1 UNK         0.2130 
      3 C3         -1.9105    0.8598    0.0874 C.2       1 UNK        -0.0190 
      4 N4          1.5571    0.1392    0.0869 N.pl3     1 UNK         0.6500 
      5 C5         -0.6573   -0.9919    0.0945 C.2       1 UNK        -0.1540 
      6 C6         -1.9956   -0.5067    0.0938 C.2       1 UNK        -0.1540 
      7 O7          2.1182    1.2291    0.0813 O.co2     1 UNK        -0.3700 
      8 O8          2.1494   -0.9353    0.0912 O.co2     1 UNK        -0.3700 
      9 H9         -2.6423    1.6544    0.0846 H         1 UNK         0.1420 
     10 H10        -0.3188   -2.0177    0.0989 H         1 UNK         0.1260 
     11 H11        -2.9081   -1.0846    0.0974 H         1 UNK         0.1260 
@<TRIPOS>BOND
     1    1    2 1    
     2    1    3 1    
     3    2    4 ar   
     4    2    5 2    
     5    3    6 2    
     6    3    9 1    
     7    4    7 1    
     8    4    8 2    
     9    5    6 1    
    10    5   10 1    
    11    6   11 1    
@<TRIPOS>SUBSTRUCTURE
     1 UNK         1 GROUP             0       ****    0 ROOT    
