@<TRIPOS>MOLECULE
title: molecule 1
20   20    1
SMALL
USER_CHARGES


@<TRIPOS>ATOM
      1 C1          3.5728   -1.1000    0.1433 C.ar      1 UNK         0.1500 
      2 O2          3.5864    0.2665    0.2320 O.3       1 UNK        -0.5850 
      3 C3          4.8025   -1.8119    0.1368 C.ar      1 UNK         0.0900 
      4 C4          2.3381   -1.8073    0.0967 C.ar      1 UNK         0.0900 
      5 C5          4.7883   -3.2226    0.1012 C.ar      1 UNK        -0.1150 
      6 N6          6.1038   -1.1194    0.1747 N.pl3     1 UNK         0.6500 
      7 C7          2.3580   -3.2201    0.0564 C.ar      1 UNK        -0.1150 
      8 N8          1.0308   -1.1151    0.1021 N.pl3     1 UNK         0.6500 
      9 C9          3.5731   -3.9281    0.0583 C.ar      1 UNK        -0.1150 
     10 O10         6.2616   -0.1265   -0.5282 O.co2     1 UNK        -0.3700 
     11 O11         6.9792   -1.5973    0.8889 O.co2     1 UNK        -0.3700 
     12 O12         0.9564    0.0153   -0.3691 O.co2     1 UNK        -0.3700 
     13 O13         0.0680   -1.7146    0.5694 O.co2     1 UNK        -0.3700 
     14 C14         3.5721   -5.4425    0.0189 C.3       1 UNK        -0.0650 
     15 H15         2.7258    0.6533    0.1545 H         1 UNK         0.4350 
     16 H16         5.7206   -3.7690    0.1007 H         1 UNK         0.1150 
     17 H17         1.4300   -3.7727    0.0219 H         1 UNK         0.1150 
     18 H18         4.4735   -5.8209   -0.4642 H         1 UNK         0.0600 
     19 H19         3.5301   -5.8448    1.0312 H         1 UNK         0.0600 
     20 H20         2.7110   -5.8167   -0.5358 H         1 UNK         0.0600 
@<TRIPOS>BOND
     1    1    2 1    
     2    1    3 ar   
     3    1    4 ar   
     4    2   15 1    
     5    3    5 ar   
     6    3    6 1    
     7    4    7 ar   
     8    4    8 1    
     9    5    9 ar   
    10    5   16 1    
    11    6   10 1    
    12    6   11 2    
    13    7    9 ar   
    14    7   17 1    
    15    8   12 1    
    16    8   13 2    
    17    9   14 1    
    18   14   18 1    
    19   14   19 1    
    20   14   20 1    
@<TRIPOS>SUBSTRUCTURE
     1 UNK         1 GROUP             0       ****    0 ROOT    
