@<TRIPOS>MOLECULE
title: molecule 1
15   15    1
SMALL
USER_CHARGES


@<TRIPOS>ATOM
      1 O1          3.4658    2.1049    0.2310 O.3       1 UNK        -0.3300 
      2 C2          3.0803    0.8352    0.0092 C.2       1 UNK         0.6250 
      3 C3          4.8455    2.4280    0.2333 C.3       1 UNK         0.1600 
      4 O4          3.8454   -0.1075   -0.1999 O.2       1 UNK        -0.4300 
      5 C5          1.6300    0.6770    0.0407 C.2       1 UNK         0.0080 
      6 C6          0.8546   -0.4375   -0.1355 C.2       1 UNK        -0.1540 
      7 O7          0.8353    1.7625    0.2778 O.3       1 UNK        -0.1900 
      8 C8         -0.4980   -0.0186    0.0002 C.2       1 UNK        -0.1540 
      9 C9         -0.4524    1.3230    0.2498 C.2       1 UNK        -0.0190 
     10 H10         4.9764    3.4925    0.4274 H         1 UNK         0.0300 
     11 H11         5.3738    1.8729    1.0095 H         1 UNK         0.0300 
     12 H12         5.3003    2.1994   -0.7314 H         1 UNK         0.0300 
     13 H13         1.2180   -1.4345   -0.3378 H         1 UNK         0.1260 
     14 H14        -1.3905   -0.6220   -0.0753 H         1 UNK         0.1260 
     15 H15        -1.2026    2.0804    0.4235 H         1 UNK         0.1420 
@<TRIPOS>BOND
     1    1    2 1    
     2    1    3 1    
     3    2    4 2    
     4    2    5 1    
     5    3   10 1    
     6    3   11 1    
     7    3   12 1    
     8    5    6 2    
     9    5    7 1    
    10    6    8 1    
    11    6   13 1    
    12    7    9 1    
    13    8    9 2    
    14    8   14 1    
    15    9   15 1    
@<TRIPOS>SUBSTRUCTURE
     1 UNK         1 GROUP             0       ****    0 ROOT    
