@<TRIPOS>MOLECULE
title: molecule 1
19   20    1
SMALL
USER_CHARGES


@<TRIPOS>ATOM
      1 O1         -0.0607   -1.1105    0.1171 O.co2     1 UNK        -0.3700 
      2 N2          0.5200   -2.1911    0.1043 N.pl3     1 UNK         0.6500 
      3 C3          1.9967   -2.1911    0.0977 C.ar      1 UNK         0.0394 
      4 O4         -0.0607   -3.2718    0.0966 O.co2     1 UNK        -0.3700 
      5 C5          2.7184   -0.9759    0.1060 C.ar      1 UNK        -0.1673 
      6 C6          2.7177   -3.4064    0.0829 C.ar      1 UNK        -0.0433 
      7 C7          4.1286   -0.9791    0.0996 C.ar      1 UNK        -0.1736 
      8 C8          4.1262   -3.4061    0.0766 C.ar      1 UNK        -0.4407 
      9 C9          4.8398    0.2386    0.1080 C.ar      1 UNK         0.0486 
     10 C10         4.8559   -2.2002    0.0848 C.ar      1 UNK         0.7341 
     11 C11         6.2459    0.2019    0.1014 C.ar      1 UNK        -0.4849 
     12 N12         6.2082   -2.2234    0.0785 N.ar      1 UNK        -0.7311 
     13 C13         6.8811   -1.0536    0.0866 C.ar      1 UNK         0.4305 
     14 H14         2.1918   -0.0325    0.1173 H         1 UNK         0.1528 
     15 H15         2.1970   -4.3529    0.0762 H         1 UNK         0.1388 
     16 H16         4.6556   -4.3476    0.0653 H         1 UNK         0.2022 
     17 H17         4.3205    1.1860    0.1193 H         1 UNK         0.1325 
     18 H18         6.8246    1.1139    0.1074 H         1 UNK         0.1970 
     19 H19         7.9591   -1.1211    0.0811 H         1 UNK         0.0550 
@<TRIPOS>BOND
     1    1    2 2    
     2    2    3 1    
     3    2    4 1    
     4    3    5 ar   
     5    3    6 ar   
     6    5    7 ar   
     7    5   14 1    
     8    6    8 ar   
     9    6   15 1    
    10    7    9 ar   
    11    7   10 ar   
    12    8   10 ar   
    13    8   16 1    
    14    9   11 ar   
    15    9   17 1    
    16   10   12 ar   
    17   11   13 ar   
    18   11   18 1    
    19   12   13 ar   
    20   13   19 1    
@<TRIPOS>SUBSTRUCTURE
     1 UNK         1 GROUP             0       ****    0 ROOT    
