@<TRIPOS>MOLECULE
title: molecule 1
22   22    1
SMALL
USER_CHARGES


@<TRIPOS>ATOM
      1 C1          1.8738   -2.4203    0.0983 C.ar      1 UNK        -0.1150 
      2 C2          0.3938   -2.5461    0.0934 C.2       1 UNK         0.5650 
      3 C3          2.4941   -1.1456    0.0951 C.ar      1 UNK         0.0850 
      4 C4          2.6665   -3.5887    0.1063 C.ar      1 UNK        -0.1150 
      5 O5         -0.2125   -3.6169    0.0957 O.2       1 UNK        -0.4500 
      6 O6          1.6866   -0.0243    0.0873 O.3       1 UNK        -0.2850 
      7 C7          3.9114   -1.0779    0.1001 C.ar      1 UNK        -0.1150 
      8 C8          4.0698   -3.5037    0.1111 C.ar      1 UNK        -0.1150 
      9 C9          2.3006    1.2566    0.0841 C.3       1 UNK         0.1100 
     10 C10         4.7069   -2.2408    0.1081 C.ar      1 UNK         0.0850 
     11 O11         6.0739   -2.0631    0.1124 O.3       1 UNK        -0.2850 
     12 C12         6.8990   -3.2190    0.1204 C.3       1 UNK         0.1100 
     13 H13        -0.1467   -1.6000    0.0873 H         1 UNK         0.0000 
     14 H14         2.2043   -4.5656    0.1088 H         1 UNK         0.1150 
     15 H15         4.4254   -0.1290    0.0979 H         1 UNK         0.1150 
     16 H16         4.6347   -4.4234    0.1172 H         1 UNK         0.1150 
     17 H17         1.5276    2.0249    0.0779 H         1 UNK         0.0300 
     18 H18         2.9092    1.4099    0.9762 H         1 UNK         0.0300 
     19 H19         2.9158    1.4022   -0.8049 H         1 UNK         0.0300 
     20 H20         7.9453   -2.9139    0.1230 H         1 UNK         0.0300 
     21 H21         6.7301   -3.8235    1.0126 H         1 UNK         0.0300 
     22 H22         6.7367   -3.8312   -0.7677 H         1 UNK         0.0300 
@<TRIPOS>BOND
     1    1    2 1    
     2    1    3 ar   
     3    1    4 ar   
     4    2    5 2    
     5    2   13 1    
     6    3    6 1    
     7    3    7 ar   
     8    4    8 ar   
     9    4   14 1    
    10    6    9 1    
    11    7   10 ar   
    12    7   15 1    
    13    8   10 ar   
    14    8   16 1    
    15    9   17 1    
    16    9   18 1    
    17    9   19 1    
    18   10   11 1    
    19   11   12 1    
    20   12   20 1    
    21   12   21 1    
    22   12   22 1    
@<TRIPOS>SUBSTRUCTURE
     1 UNK         1 GROUP             0       ****    0 ROOT    
