@<TRIPOS>MOLECULE
title: molecule 1
28   29    1
SMALL
USER_CHARGES


@<TRIPOS>ATOM
      1 C1         -0.0985    2.3876    0.3420 C.ar      1 UNK        -0.1150 
      2 C2          1.0681    1.6260    0.1097 C.ar      1 UNK         0.0000 
      3 C3         -1.3701    1.7824    0.3212 C.ar      1 UNK        -0.1150 
      4 C4          0.9362    0.2401   -0.1454 C.ar      1 UNK        -0.1150 
      5 C5          2.3744    2.3092    0.1423 C.2       1 UNK        -0.1150 
      6 C6         -1.4894    0.4038    0.0669 C.ar      1 UNK        -0.1150 
      7 C7         -0.3351   -0.3664   -0.1663 C.ar      1 UNK        -0.1150 
      8 C8          3.5792    1.7397   -0.0638 C.2       1 UNK        -0.1150 
      9 C9          4.8283    2.5309   -0.0096 C.2       1 UNK         0.5850 
     10 O10         4.8053    3.7621   -0.0589 O.2       1 UNK        -0.4700 
     11 C11         6.1239    1.7903    0.0735 C.ar      1 UNK        -0.1150 
     12 C12         7.3197    2.4561   -0.2872 C.ar      1 UNK        -0.1150 
     13 C13         6.2004    0.4398    0.4960 C.ar      1 UNK        -0.1150 
     14 C14         8.5596    1.7904   -0.2321 C.ar      1 UNK        -0.1150 
     15 C15         7.4414   -0.2246    0.5516 C.ar      1 UNK        -0.1150 
     16 C16         8.6213    0.4489    0.1863 C.ar      1 UNK        -0.1150 
     17 H17        -0.0241    3.4473    0.5387 H         1 UNK         0.1150 
     18 H18        -2.2539    2.3768    0.5006 H         1 UNK         0.1150 
     19 H19         1.8002   -0.3796   -0.3280 H         1 UNK         0.1150 
     20 H20         2.3309    3.3684    0.3556 H         1 UNK         0.1150 
     21 H21        -2.4638   -0.0617    0.0506 H         1 UNK         0.1150 
     22 H22        -0.4242   -1.4249   -0.3619 H         1 UNK         0.1150 
     23 H23         3.6542    0.6870   -0.2801 H         1 UNK         0.1150 
     24 H24         7.2981    3.4855   -0.6154 H         1 UNK         0.1150 
     25 H25         5.3215   -0.1068    0.8020 H         1 UNK         0.1150 
     26 H26         9.4639    2.3104   -0.5121 H         1 UNK         0.1150 
     27 H27         7.4879   -1.2528    0.8790 H         1 UNK         0.1150 
     28 H28         9.5721   -0.0618    0.2297 H         1 UNK         0.1150 
@<TRIPOS>BOND
     1    1    2 ar   
     2    1    3 ar   
     3    1   17 1    
     4    2    4 ar   
     5    2    5 1    
     6    3    6 ar   
     7    3   18 1    
     8    4    7 ar   
     9    4   19 1    
    10    5    8 2    
    11    5   20 1    
    12    6    7 ar   
    13    6   21 1    
    14    7   22 1    
    15    8    9 1    
    16    8   23 1    
    17    9   10 2    
    18    9   11 1    
    19   11   12 ar   
    20   11   13 ar   
    21   12   14 ar   
    22   12   24 1    
    23   13   15 ar   
    24   13   25 1    
    25   14   16 ar   
    26   14   26 1    
    27   15   16 ar   
    28   15   27 1    
    29   16   28 1    
@<TRIPOS>SUBSTRUCTURE
     1 UNK         1 GROUP             0       ****    0 ROOT    
