@<TRIPOS>MOLECULE
title: molecule 1
26   25    1
SMALL
USER_CHARGES


@<TRIPOS>ATOM
      1 C1          5.0660    2.2367    0.7819 C.2       1 UNK         0.5100 
      2 C2          3.6806    1.6797    1.1101 C.3       1 UNK        -0.0530 
      3 O3          5.7526    1.4654   -0.0789 O.3       1 UNK        -0.3300 
      4 O4          5.4638    3.2903    1.2792 O.2       1 UNK        -0.4300 
      5 C5          2.7770    1.5846   -0.1331 C.3       1 UNK        -0.0095 
      6 Br6         3.9031   -0.1250    1.9285 Br        1 UNK        -0.2039 
      7 C7          7.0576    1.8495   -0.4770 C.3       1 UNK         0.1900 
      8 C8          1.3115    1.2791    0.2135 C.3       1 UNK        -0.1200 
      9 C9          7.6172    0.8046   -1.4452 C.3       1 UNK        -0.1800 
     10 C10         0.4129    1.2172   -1.0299 C.3       1 UNK        -0.1200 
     11 C11        -1.0488    0.9118   -0.6849 C.3       1 UNK        -0.1800 
     12 H12         3.2209    2.3219    1.8618 H         1 UNK         0.1464 
     13 H13         2.8135    2.5292   -0.6783 H         1 UNK         0.0600 
     14 H14         3.1611    0.8233   -0.8137 H         1 UNK         0.0600 
     15 H15         7.0257    2.8279   -0.9582 H         1 UNK         0.0300 
     16 H16         7.7030    1.9327    0.3986 H         1 UNK         0.0300 
     17 H17         1.2493    0.3307    0.7479 H         1 UNK         0.0600 
     18 H18         0.9340    2.0421    0.8955 H         1 UNK         0.0600 
     19 H19         8.6226    1.0747   -1.7683 H         1 UNK         0.0600 
     20 H20         7.6696   -0.1775   -0.9746 H         1 UNK         0.0600 
     21 H21         6.9918    0.7190   -2.3341 H         1 UNK         0.0600 
     22 H22         0.4640    2.1650   -1.5671 H         1 UNK         0.0600 
     23 H23         0.7867    0.4543   -1.7139 H         1 UNK         0.0600 
     24 H24        -1.6610    0.8740   -1.5862 H         1 UNK         0.0600 
     25 H25        -1.1418   -0.0498   -0.1794 H         1 UNK         0.0600 
     26 H26        -1.4675    1.6770   -0.0306 H         1 UNK         0.0600 
@<TRIPOS>BOND
     1    1    2 1    
     2    1    3 1    
     3    1    4 2    
     4    2    5 1    
     5    2    6 1    
     6    2   12 1    
     7    3    7 1    
     8    5    8 1    
     9    5   13 1    
    10    5   14 1    
    11    7    9 1    
    12    7   15 1    
    13    7   16 1    
    14    8   10 1    
    15    8   17 1    
    16    8   18 1    
    17    9   19 1    
    18    9   20 1    
    19    9   21 1    
    20   10   11 1    
    21   10   22 1    
    22   10   23 1    
    23   11   24 1    
    24   11   25 1    
    25   11   26 1    
@<TRIPOS>SUBSTRUCTURE
     1 UNK         1 GROUP             0       ****    0 ROOT    
