@<TRIPOS>MOLECULE
title: molecule 1
14   14    1
SMALL
USER_CHARGES


@<TRIPOS>ATOM
      1 Cl1         1.8544    4.2098    0.1655 Cl        1 UNK        -0.1800 
      2 C2          1.8463    2.4822    0.1299 C.ar      1 UNK         0.1800 
      3 C3          0.6291    1.7653    0.1281 C.ar      1 UNK         0.1500 
      4 C4          3.0709    1.7855    0.1024 C.ar      1 UNK        -0.1150 
      5 O5         -0.5667    2.4246    0.1545 O.3       1 UNK        -0.5850 
      6 C6          0.6449    0.3560    0.0988 C.ar      1 UNK        -0.1150 
      7 C7          3.0843    0.3773    0.0731 C.ar      1 UNK         0.1500 
      8 C8          1.8704   -0.3376    0.0713 C.ar      1 UNK        -0.1150 
      9 O9          4.2735   -0.2911    0.0466 O.3       1 UNK        -0.5850 
     10 H10         4.0018    2.3337    0.1037 H         1 UNK         0.1150 
     11 H11        -1.3134    1.8459    0.1505 H         1 UNK         0.4350 
     12 H12        -0.2820   -0.1988    0.0972 H         1 UNK         0.1150 
     13 H13         1.8735   -1.4176    0.0490 H         1 UNK         0.1150 
     14 H14         4.1742   -1.2306    0.0282 H         1 UNK         0.4350 
@<TRIPOS>BOND
     1    1    2 1    
     2    2    3 ar   
     3    2    4 ar   
     4    3    5 1    
     5    3    6 ar   
     6    4    7 ar   
     7    4   10 1    
     8    5   11 1    
     9    6    8 ar   
    10    6   12 1    
    11    7    8 ar   
    12    7    9 1    
    13    8   13 1    
    14    9   14 1    
@<TRIPOS>SUBSTRUCTURE
     1 UNK         1 GROUP             0       ****    0 ROOT    
