@<TRIPOS>MOLECULE
title: molecule 1
15   14    1
SMALL
USER_CHARGES


@<TRIPOS>ATOM
      1 C1         -1.3431    0.0951   -0.1882 C.3       1 UNK         0.1450 
      2 C2          0.0453    0.5255    0.3182 C.3       1 UNK         0.2050 
      3 O3         -1.6744   -1.1925    0.2896 O.3       1 UNK        -0.6830 
      4 C4          1.1891   -0.2976   -0.3034 C.3       1 UNK         0.0600 
      5 O5          0.2250    1.8744   -0.0615 O.3       1 UNK        -0.6830 
      6 N6          2.4287   -0.2346    0.4872 N.3       1 UNK        -0.9000 
      7 H7         -2.1069    0.7912    0.1609 H         1 UNK         0.0600 
      8 H8         -1.3789    0.0975   -1.2784 H         1 UNK         0.0600 
      9 H9          0.0679    0.4576    1.4071 H         1 UNK         0.0600 
     10 H10        -2.5366   -1.4179   -0.0251 H         1 UNK         0.4180 
     11 H11         0.8807   -1.3416   -0.3644 H         1 UNK         0.0600 
     12 H12         1.3716    0.0174   -1.3316 H         1 UNK         0.0600 
     13 H13         1.0453    2.1769    0.2962 H         1 UNK         0.4180 
     14 H14         3.1509   -0.8140    0.0612 H         1 UNK         0.3600 
     15 H15         2.7916    0.7169    0.5113 H         1 UNK         0.3600 
@<TRIPOS>BOND
     1    1    2 1    
     2    1    3 1    
     3    1    7 1    
     4    1    8 1    
     5    2    4 1    
     6    2    5 1    
     7    2    9 1    
     8    3   10 1    
     9    4    6 1    
    10    4   11 1    
    11    4   12 1    
    12    5   13 1    
    13    6   14 1    
    14    6   15 1    
@<TRIPOS>SUBSTRUCTURE
     1 UNK         1 GROUP             0       ****    0 ROOT    
