@<TRIPOS>MOLECULE
title: molecule 1
10   10    1
SMALL
USER_CHARGES


@<TRIPOS>ATOM
      1 C1          1.9595    0.7672    0.1044 C.2       1 UNK         0.1580 
      2 O2          0.7934    0.0614    0.1545 O.3       1 UNK        -0.1900 
      3 C3          1.6897    2.1069    0.0319 C.2       1 UNK        -0.1540 
      4 C4          3.1667    0.0481    0.1337 C.1       1 UNK         0.3950 
      5 C5         -0.2209    0.9683    0.1129 C.2       1 UNK        -0.0190 
      6 C6          0.2733    2.2388    0.0374 C.2       1 UNK        -0.1540 
      7 N7          4.1608   -0.5435    0.1578 N.1       1 UNK        -0.4300 
      8 H8          2.4237    2.8978   -0.0190 H         1 UNK         0.1260 
      9 H9         -1.2163    0.5503    0.1453 H         1 UNK         0.1420 
     10 H10        -0.3094    3.1471   -0.0082 H         1 UNK         0.1260 
@<TRIPOS>BOND
     1    1    2 1    
     2    1    3 2    
     3    1    4 1    
     4    2    5 1    
     5    3    6 1    
     6    3    8 1    
     7    4    7 3    
     8    5    6 2    
     9    5    9 1    
    10    6   10 1    
@<TRIPOS>SUBSTRUCTURE
     1 UNK         1 GROUP             0       ****    0 ROOT    
