@<TRIPOS>MOLECULE
title: molecule 1
15   15    1
SMALL
USER_CHARGES


@<TRIPOS>ATOM
      1 O1         -0.7747    2.9912    0.1515 O.co2     1 UNK        -0.3700 
      2 N2         -0.2042    1.9059    0.1131 N.pl3     1 UNK         0.6500 
      3 O3         -0.7948    0.8313    0.0772 O.co2     1 UNK        -0.3700 
      4 C4          1.2719    1.8922    0.1100 C.ar      1 UNK         0.0900 
      5 C5          2.0035    3.1018    0.1503 C.ar      1 UNK        -0.1150 
      6 C6          1.9808    0.6694    0.0667 C.ar      1 UNK        -0.1150 
      7 C7          3.4120    3.0921    0.1474 C.ar      1 UNK         0.1800 
      8 C8          3.3890    0.6541    0.0637 C.ar      1 UNK         0.1800 
      9 Cl9         4.2670    4.5928    0.1975 Cl        1 UNK        -0.1800 
     10 C10         4.1096    1.8662    0.1040 C.ar      1 UNK         0.1500 
     11 Cl11        4.2206   -0.8595    0.0101 Cl        1 UNK        -0.1800 
     12 O12         5.4762    1.8494    0.1010 O.3       1 UNK        -0.5850 
     13 H13         1.4894    4.0513    0.1839 H         1 UNK         0.1150 
     14 H14         1.4492   -0.2706    0.0353 H         1 UNK         0.1150 
     15 H15         5.8310    0.9736    0.0703 H         1 UNK         0.4350 
@<TRIPOS>BOND
     1    1    2 1    
     2    2    3 2    
     3    2    4 1    
     4    4    5 ar   
     5    4    6 ar   
     6    5    7 ar   
     7    5   13 1    
     8    6    8 ar   
     9    6   14 1    
    10    7    9 1    
    11    7   10 ar   
    12    8   10 ar   
    13    8   11 1    
    14   10   12 1    
    15   12   15 1    
@<TRIPOS>SUBSTRUCTURE
     1 UNK         1 GROUP             0       ****    0 ROOT    
