@<TRIPOS>MOLECULE
title: molecule 1
15   15    1
SMALL
USER_CHARGES


@<TRIPOS>ATOM
      1 Br1         2.7566   -0.5729    1.3160 Br        1 UNK        -0.1020 
      2 C2          1.8666    0.6384    0.0089 C.3       1 UNK         0.1153 
      3 Br3         2.5046    0.3472   -1.8554 Br        1 UNK        -0.1020 
      4 C4          0.3742    0.3637    0.0478 C.ar      1 UNK        -0.1150 
      5 C5         -0.5239    1.3879    0.4163 C.ar      1 UNK        -0.1150 
      6 C6         -0.1259   -0.9144   -0.2833 C.ar      1 UNK        -0.1150 
      7 C7         -1.9094    1.1362    0.4533 C.ar      1 UNK        -0.1150 
      8 C8         -1.5112   -1.1656   -0.2461 C.ar      1 UNK        -0.1150 
      9 C9         -2.4034   -0.1403    0.1222 C.ar      1 UNK        -0.1150 
     10 H10         2.0972    1.6667    0.2889 H         1 UNK         0.2037 
     11 H11        -0.1557    2.3706    0.6721 H         1 UNK         0.1150 
     12 H12         0.5525   -1.7058   -0.5668 H         1 UNK         0.1150 
     13 H13        -2.5934    1.9228    0.7359 H         1 UNK         0.1150 
     14 H14        -1.8892   -2.1449   -0.5002 H         1 UNK         0.1150 
     15 H15        -3.4658   -0.3328    0.1508 H         1 UNK         0.1150 
@<TRIPOS>BOND
     1    1    2 1    
     2    2    3 1    
     3    2    4 1    
     4    2   10 1    
     5    4    5 ar   
     6    4    6 ar   
     7    5    7 ar   
     8    5   11 1    
     9    6    8 ar   
    10    6   12 1    
    11    7    9 ar   
    12    7   13 1    
    13    8    9 ar   
    14    8   14 1    
    15    9   15 1    
@<TRIPOS>SUBSTRUCTURE
     1 UNK         1 GROUP             0       ****    0 ROOT    
