@<TRIPOS>MOLECULE
title: molecule 1
17   17    1
SMALL
USER_CHARGES


@<TRIPOS>ATOM
      1 N1         -0.7800   -0.0761    0.1926 N.am      1 UNK        -0.7600 
      2 C2         -0.1348    0.9967   -0.2729 C.2       1 UNK         0.6150 
      3 O3         -0.7256    1.9610   -0.7548 O.2       1 UNK        -0.5000 
      4 C4          1.3590    0.9939   -0.1122 C.ar      1 UNK        -0.1150 
      5 C5          2.0479    2.2128    0.0794 C.ar      1 UNK        -0.1150 
      6 C6          2.0995   -0.2093   -0.1904 C.ar      1 UNK        -0.1150 
      7 C7          3.4500    2.2280    0.2123 C.ar      1 UNK        -0.1150 
      8 C8          3.5020   -0.1935   -0.0579 C.ar      1 UNK        -0.1150 
      9 C9          4.1782    1.0250    0.1456 C.ar      1 UNK         0.1500 
     10 O10         5.5364    1.0430    0.2741 O.3       1 UNK        -0.5850 
     11 H11        -1.7867   -0.1162    0.1304 H         1 UNK         0.3800 
     12 H12        -0.2622   -0.8340    0.6119 H         1 UNK         0.3800 
     13 H13         1.5039    3.1451    0.1299 H         1 UNK         0.1150 
     14 H14         1.6031   -1.1539   -0.3583 H         1 UNK         0.1150 
     15 H15         3.9655    3.1652    0.3636 H         1 UNK         0.1150 
     16 H16         4.0548   -1.1196   -0.1172 H         1 UNK         0.1150 
     17 H17         5.9278    0.1854    0.2116 H         1 UNK         0.4350 
@<TRIPOS>BOND
     1    1    2 am   BACKBONE|DICT|INTERRES
     2    1   11 1    
     3    1   12 1    
     4    2    3 2    
     5    2    4 1    
     6    4    5 ar   
     7    4    6 ar   
     8    5    7 ar   
     9    5   13 1    
    10    6    8 ar   
    11    6   14 1    
    12    7    9 ar   
    13    7   15 1    
    14    8    9 ar   
    15    8   16 1    
    16    9   10 1    
    17   10   17 1    
@<TRIPOS>SUBSTRUCTURE
     1 UNK         1 GROUP             0       ****    0 ROOT    
