@<TRIPOS>MOLECULE
title: molecule 1
20   19    1
SMALL
USER_CHARGES


@<TRIPOS>ATOM
      1 C1         -0.4495    1.5683   -0.1750 C.3       1 UNK        -0.1800 
      2 C2          0.8303    0.7777    0.1375 C.3       1 UNK        -0.0600 
      3 C3          2.0573    1.7176    0.1579 C.3       1 UNK        -0.1200 
      4 C4          0.6648   -0.0057    1.4509 C.3       1 UNK        -0.1800 
      5 C5          3.4276    1.0098    0.2348 C.3       1 UNK         0.2050 
      6 C6          4.5430    1.9575    0.3962 C.1       1 UNK         0.0100 
      7 O7          3.6204    0.2087   -0.9122 O.3       1 UNK        -0.6830 
      8 C8          5.4606    2.7510    0.5366 C.1       1 UNK        -0.2100 
      9 H9         -1.3160    0.9088   -0.2322 H         1 UNK         0.0600 
     10 H10        -0.6510    2.3163    0.5925 H         1 UNK         0.0600 
     11 H11        -0.3703    2.0859   -1.1315 H         1 UNK         0.0600 
     12 H12         0.9604    0.0538   -0.6677 H         1 UNK         0.0600 
     13 H13         2.0389    2.3473   -0.7335 H         1 UNK         0.0600 
     14 H14         1.9541    2.4017    1.0023 H         1 UNK         0.0600 
     15 H15         1.5095   -0.6687    1.6353 H         1 UNK         0.0600 
     16 H16         0.5730    0.6660    2.3050 H         1 UNK         0.0600 
     17 H17        -0.2289   -0.6298    1.4236 H         1 UNK         0.0600 
     18 H18         3.4704    0.3614    1.1093 H         1 UNK         0.0600 
     19 H19         2.9792    0.4546   -1.5611 H         1 UNK         0.4180 
     20 H20         6.2645    3.4421    0.6564 H         1 UNK         0.2000 
@<TRIPOS>BOND
     1    1    2 1    
     2    1    9 1    
     3    1   10 1    
     4    1   11 1    
     5    2    3 1    
     6    2    4 1    
     7    2   12 1    
     8    3    5 1    
     9    3   13 1    
    10    3   14 1    
    11    4   15 1    
    12    4   16 1    
    13    4   17 1    
    14    5    6 1    
    15    5    7 1    
    16    5   18 1    
    17    6    8 3    
    18    7   19 1    
    19    8   20 1    
@<TRIPOS>SUBSTRUCTURE
     1 UNK         1 GROUP             0       ****    0 ROOT    
