@<TRIPOS>MOLECULE
title: molecule 1
14   14    1
SMALL
USER_CHARGES


@<TRIPOS>ATOM
      1 O1         -0.7983    1.3594    0.1482 O.2       1 UNK        -0.4500 
      2 C2         -0.0624    0.3743    0.1596 C.2       1 UNK         0.5650 
      3 C3          1.3885    0.4731    0.1352 C.2       1 UNK         0.0080 
      4 O4          1.9750    1.7039    0.0981 O.3       1 UNK        -0.1900 
      5 C5          2.3466   -0.5026    0.1429 C.2       1 UNK        -0.1540 
      6 C6          3.3224    1.5037    0.0821 C.2       1 UNK         0.0080 
      7 C7          3.6016    0.1662    0.1085 C.2       1 UNK        -0.1540 
      8 C8          4.1670    2.7309    0.0412 C.3       1 UNK        -0.0650 
      9 H9         -0.4489   -0.6446    0.1888 H         1 UNK         0.0000 
     10 H10         2.1683   -1.5676    0.1700 H         1 UNK         0.1260 
     11 H11         4.5868   -0.2763    0.1036 H         1 UNK         0.1260 
     12 H12         5.2265    2.4748    0.0309 H         1 UNK         0.0600 
     13 H13         3.9524    3.3180   -0.8519 H         1 UNK         0.0600 
     14 H14         3.9793    3.3584    0.9126 H         1 UNK         0.0600 
@<TRIPOS>BOND
     1    1    2 2    
     2    2    3 1    
     3    2    9 1    
     4    3    4 1    
     5    3    5 2    
     6    4    6 1    
     7    5    7 1    
     8    5   10 1    
     9    6    7 2    
    10    6    8 1    
    11    7   11 1    
    12    8   12 1    
    13    8   13 1    
    14    8   14 1    
@<TRIPOS>SUBSTRUCTURE
     1 UNK         1 GROUP             0       ****    0 ROOT    
