@<TRIPOS>MOLECULE
title: molecule 1
18   17    1
SMALL
USER_CHARGES


@<TRIPOS>ATOM
      1 C1          4.1575    1.2048   -0.1126 C.2       1 UNK        -0.1150 
      2 C2          2.7492    1.6401   -0.1915 C.2       1 UNK         0.5100 
      3 C3          4.5384   -0.0555    0.1729 C.2       1 UNK        -0.1150 
      4 O4          1.8680    0.6482    0.0513 O.3       1 UNK        -0.3300 
      5 O5          2.4287    2.7995   -0.4546 O.2       1 UNK        -0.4300 
      6 C6          5.9808   -0.5051    0.2546 C.3       1 UNK        -0.1800 
      7 C7          0.4755    0.9146    0.0112 C.3       1 UNK         0.1900 
      8 C8         -0.2940   -0.3718    0.3204 C.3       1 UNK        -0.1800 
      9 H9          4.9099    1.9576   -0.2982 H         1 UNK         0.1150 
     10 H10         3.8078   -0.8288    0.3629 H         1 UNK         0.1150 
     11 H11         6.1695   -1.2942   -0.4734 H         1 UNK         0.0600 
     12 H12         6.6665    0.3187    0.0536 H         1 UNK         0.0600 
     13 H13         6.1960   -0.8960    1.2492 H         1 UNK         0.0600 
     14 H14         0.2245    1.6860    0.7405 H         1 UNK         0.0300 
     15 H15         0.1981    1.2894   -0.9750 H         1 UNK         0.0300 
     16 H16        -1.3693   -0.1954    0.2962 H         1 UNK         0.0600 
     17 H17        -0.0662   -1.1498   -0.4086 H         1 UNK         0.0600 
     18 H18        -0.0397   -0.7526    1.3099 H         1 UNK         0.0600 
@<TRIPOS>BOND
     1    1    2 1    
     2    1    3 2    
     3    1    9 1    
     4    2    4 1    
     5    2    5 2    
     6    3    6 1    
     7    3   10 1    
     8    4    7 1    
     9    6   11 1    
    10    6   12 1    
    11    6   13 1    
    12    7    8 1    
    13    7   14 1    
    14    7   15 1    
    15    8   16 1    
    16    8   17 1    
    17    8   18 1    
@<TRIPOS>SUBSTRUCTURE
     1 UNK         1 GROUP             0       ****    0 ROOT    
