@<TRIPOS>MOLECULE
title: molecule 1
13   13    1
SMALL
USER_CHARGES


@<TRIPOS>ATOM
      1 C1          2.9919    1.8153    0.1090 C.ar      1 UNK         0.0350 
      2 C2          4.2525    2.5390    0.1136 C.1       1 UNK         0.3950 
      3 C3          1.7719    2.5208    0.0475 C.ar      1 UNK        -0.1150 
      4 C4          2.9856    0.4059    0.1659 C.ar      1 UNK        -0.1150 
      5 N5          5.2559    3.1151    0.1172 N.1       1 UNK        -0.4300 
      6 C6          0.5504    1.8185    0.0431 C.ar      1 UNK        -0.1150 
      7 C7          1.7632   -0.2948    0.1614 C.ar      1 UNK        -0.1150 
      8 C8          0.5459    0.4111    0.1000 C.ar      1 UNK         0.2000 
      9 Br9        -1.1044   -0.5363    0.0940 Br        1 UNK        -0.2000 
     10 H10         1.7657    3.6006    0.0035 H         1 UNK         0.1150 
     11 H11         3.9147   -0.1441    0.2133 H         1 UNK         0.1150 
     12 H12        -0.3829    2.3601   -0.0040 H         1 UNK         0.1150 
     13 H13         1.7600   -1.3740    0.2051 H         1 UNK         0.1150 
@<TRIPOS>BOND
     1    1    2 1    
     2    1    3 ar   
     3    1    4 ar   
     4    2    5 3    
     5    3    6 ar   
     6    3   10 1    
     7    4    7 ar   
     8    4   11 1    
     9    6    8 ar   
    10    6   12 1    
    11    7    8 ar   
    12    7   13 1    
    13    8    9 1    
@<TRIPOS>SUBSTRUCTURE
     1 UNK         1 GROUP             0       ****    0 ROOT    
