@<TRIPOS>MOLECULE
title: molecule 1
6   5    1
SMALL
USER_CHARGES


@<TRIPOS>ATOM
      1 C1          0.1334    0.1434    0.0887 C.1       1 UNK         0.4600 
      2 C2         -1.3364    0.1265    0.1012 C.3       1 UNK         0.1800 
      3 N3          1.2902    0.1562    0.0789 N.1       1 UNK        -0.5600 
      4 I4         -2.1495    2.1478    0.1903 I         1 UNK        -0.2000 
      5 H5         -1.7286   -0.3272   -0.8089 H         1 UNK         0.0600 
      6 H6         -1.7126   -0.3995    0.9785 H         1 UNK         0.0600 
@<TRIPOS>BOND
     1    1    2 1    
     2    1    3 3    
     3    2    4 1    
     4    2    5 1    
     5    2    6 1    
@<TRIPOS>SUBSTRUCTURE
     1 UNK         1 GROUP             0       ****    0 ROOT    
