@<TRIPOS>MOLECULE
title: molecule 1
31   30    1
SMALL
USER_CHARGES


@<TRIPOS>ATOM
      1 C1          8.8969    2.2088    2.1806 C.3       1 UNK        -0.1800 
      2 C2          7.9750    2.7847    1.1000 C.3       1 UNK        -0.1200 
      3 C3          7.2563    1.6928    0.2949 C.3       1 UNK        -0.1200 
      4 C4          6.3338    2.2691   -0.7850 C.3       1 UNK         0.0511 
      5 O5          5.7125    1.2009   -1.4763 O.3       1 UNK        -0.3861 
      6 S6          4.5448    1.6709   -2.6015 S.3       1 UNK         1.3660 
      7 O7          3.3746    2.4662   -1.6803 O.3       1 UNK        -0.3861 
      8 O8          5.1556    2.6677   -3.4947 O.2       1 UNK        -0.4680 
      9 O9          3.9358    0.4460   -3.1430 O.2       1 UNK        -0.4680 
     10 C10         2.7512    1.6648   -0.6933 C.3       1 UNK         0.0511 
     11 C11         1.8264    2.5473    0.1524 C.3       1 UNK        -0.1200 
     12 C12         1.1053    1.7586    1.2547 C.3       1 UNK        -0.1200 
     13 C13         0.1811    2.6408    2.1012 C.3       1 UNK        -0.1800 
     14 H14         9.3921    3.0068    2.7342 H         1 UNK         0.0600 
     15 H15         8.3368    1.6059    2.8959 H         1 UNK         0.0600 
     16 H16         9.6709    1.5779    1.7429 H         1 UNK         0.0600 
     17 H17         7.2386    3.4390    1.5681 H         1 UNK         0.0600 
     18 H18         8.5602    3.4112    0.4258 H         1 UNK         0.0600 
     19 H19         7.9934    1.0386   -0.1723 H         1 UNK         0.0600 
     20 H20         6.6717    1.0671    0.9705 H         1 UNK         0.0600 
     21 H21         5.5797    2.9138   -0.3319 H         1 UNK         0.0600 
     22 H22         6.9075    2.8759   -1.4865 H         1 UNK         0.0600 
     23 H23         2.1789    0.8702   -1.1734 H         1 UNK         0.0600 
     24 H24         3.5039    1.1927   -0.0608 H         1 UNK         0.0600 
     25 H25         2.4096    3.3519    0.6020 H         1 UNK         0.0600 
     26 H26         1.0906    3.0240   -0.4964 H         1 UNK         0.0600 
     27 H27         0.5216    0.9536    0.8067 H         1 UNK         0.0600 
     28 H28         1.8403    1.2821    1.9043 H         1 UNK         0.0600 
     29 H29        -0.3158    2.0537    2.8739 H         1 UNK         0.0600 
     30 H30         0.7396    3.4361    2.5957 H         1 UNK         0.0600 
     31 H31        -0.5917    3.1046    1.4876 H         1 UNK         0.0600 
@<TRIPOS>BOND
     1    1    2 1    
     2    1   14 1    
     3    1   15 1    
     4    1   16 1    
     5    2    3 1    
     6    2   17 1    
     7    2   18 1    
     8    3    4 1    
     9    3   19 1    
    10    3   20 1    
    11    4    5 1    
    12    4   21 1    
    13    4   22 1    
    14    5    6 1    
    15    6    7 1    
    16    6    8 2    
    17    6    9 2    
    18    7   10 1    
    19   10   11 1    
    20   10   23 1    
    21   10   24 1    
    22   11   12 1    
    23   11   25 1    
    24   11   26 1    
    25   12   13 1    
    26   12   27 1    
    27   12   28 1    
    28   13   29 1    
    29   13   30 1    
    30   13   31 1    
@<TRIPOS>SUBSTRUCTURE
     1 UNK         1 GROUP             0       ****    0 ROOT    
