@<TRIPOS>MOLECULE
title: molecule 1
16   16    1
SMALL
USER_CHARGES


@<TRIPOS>ATOM
      1 C1          3.3947    0.7491    0.1258 C.ar      1 UNK        -0.1150 
      2 C2          1.9832    0.7521    0.1219 C.ar      1 UNK        -0.1150 
      3 C3          4.0959    1.9743    0.0837 C.ar      1 UNK        -0.1150 
      4 C4          4.1217   -0.5389    0.1739 C.2       1 UNK         0.5650 
      5 C5          1.2726    1.9725    0.0762 C.ar      1 UNK        -0.1150 
      6 C6          3.3895    3.1914    0.0381 C.ar      1 UNK        -0.1150 
      7 O7          5.3473   -0.6451    0.1810 O.2       1 UNK        -0.4500 
      8 C8          1.9814    3.1917    0.0343 C.ar      1 UNK        -0.1150 
      9 C9         -0.2071    1.9887    0.0716 C.2       1 UNK         0.5650 
     10 O10        -0.9129    0.9817    0.1058 O.2       1 UNK        -0.4500 
     11 H11         1.4442   -0.1848    0.1540 H         1 UNK         0.1150 
     12 H12         5.1765    1.9902    0.0860 H         1 UNK         0.1150 
     13 H13         3.4757   -1.4167    0.2037 H         1 UNK         0.0000 
     14 H14         3.9290    4.1266    0.0061 H         1 UNK         0.1150 
     15 H15         1.4526    4.1336   -0.0009 H         1 UNK         0.1150 
     16 H16        -0.6438    2.9871    0.0346 H         1 UNK         0.0000 
@<TRIPOS>BOND
     1    1    2 ar   
     2    1    3 ar   
     3    1    4 1    
     4    2    5 ar   
     5    2   11 1    
     6    3    6 ar   
     7    3   12 1    
     8    4    7 2    
     9    4   13 1    
    10    5    8 ar   
    11    5    9 1    
    12    6    8 ar   
    13    6   14 1    
    14    8   15 1    
    15    9   10 2    
    16    9   16 1    
@<TRIPOS>SUBSTRUCTURE
     1 UNK         1 GROUP             0       ****    0 ROOT    
