@<TRIPOS>MOLECULE
title: molecule 1
11   11    1
SMALL
USER_CHARGES


@<TRIPOS>ATOM
      1 C1         -0.2549    1.7821    0.0705 C.ar      1 UNK        -0.4470 
      2 C2          0.9552    2.5025    0.0937 C.ar      1 UNK         0.2270 
      3 C3         -0.1976    0.3739    0.0766 C.ar      1 UNK         0.4730 
      4 C4          2.1676    1.7864    0.1219 C.ar      1 UNK        -0.1120 
      5 N5          0.9602   -0.3210    0.1036 N.ar      1 UNK        -0.6780 
      6 C6          2.1161    0.3777    0.1257 C.ar      1 UNK         0.4730 
      7 Cl7         3.6808    2.6147    0.1512 Cl        1 UNK        -0.1800 
      8 H8         -1.2045    2.2961    0.0486 H         1 UNK         0.1550 
      9 H9          0.9520    3.5826    0.0899 H         1 UNK         0.0650 
     10 H10        -1.1062   -0.2098    0.0594 H         1 UNK         0.0120 
     11 H11         3.0257   -0.2043    0.1470 H         1 UNK         0.0120 
@<TRIPOS>BOND
     1    1    2 ar   
     2    1    3 ar   
     3    1    8 1    
     4    2    4 ar   
     5    2    9 1    
     6    3    5 ar   
     7    3   10 1    
     8    4    6 ar   
     9    4    7 1    
    10    5    6 ar   
    11    6   11 1    
@<TRIPOS>SUBSTRUCTURE
     1 UNK         1 GROUP             0       ****    0 ROOT    
