@<TRIPOS>MOLECULE
title: molecule 1
13   12    1
SMALL
USER_CHARGES


@<TRIPOS>ATOM
      1 O1          1.9110    1.1105    0.1128 O.3       1 UNK        -0.3300 
      2 C2          0.5707    1.0442    0.1037 C.2       1 UNK         0.5100 
      3 C3          2.5470    2.3773    0.1368 C.3       1 UNK         0.1900 
      4 C4          0.0599   -0.3901    0.0777 C.3       1 UNK        -0.1800 
      5 O5         -0.2019    2.0026    0.1143 O.2       1 UNK        -0.4300 
      6 C6          4.0058    2.1906    0.1424 C.1       1 UNK         0.0100 
      7 C7          5.2183    2.0465    0.1496 C.1       1 UNK        -0.2100 
      8 H8          2.2726    2.9639   -0.7408 H         1 UNK         0.0300 
      9 H9          2.2623    2.9355    1.0296 H         1 UNK         0.0300 
     10 H10        -1.0301   -0.4081    0.0714 H         1 UNK         0.0600 
     11 H11         0.4196   -0.9037   -0.8139 H         1 UNK         0.0600 
     12 H12         0.4098   -0.9323    0.9562 H         1 UNK         0.0600 
     13 H13         6.2773    1.9170    0.1559 H         1 UNK         0.2000 
@<TRIPOS>BOND
     1    1    2 1    
     2    1    3 1    
     3    2    4 1    
     4    2    5 2    
     5    3    6 1    
     6    3    8 1    
     7    3    9 1    
     8    4   10 1    
     9    4   11 1    
    10    4   12 1    
    11    6    7 3    
    12    7   13 1    
@<TRIPOS>SUBSTRUCTURE
     1 UNK         1 GROUP             0       ****    0 ROOT    
