@<TRIPOS>MOLECULE
title: molecule 1
19   18    1
SMALL
USER_CHARGES


@<TRIPOS>ATOM
      1 C1          1.2570    1.2872    0.8428 C.3       1 UNK         0.0800 
      2 C2          2.4023    1.1622   -0.1705 C.3       1 UNK        -0.1200 
      3 N3         -0.0705    0.9622    0.2380 N.pl3     1 UNK         0.5400 
      4 C4          3.7680    1.4951    0.4462 C.3       1 UNK        -0.1200 
      5 O5         -0.4432   -0.2046    0.2816 O.co2     1 UNK        -0.3700 
      6 O6         -0.7032    1.8816   -0.2687 O.co2     1 UNK        -0.3700 
      7 C7          4.9174    1.3713   -0.5644 C.3       1 UNK        -0.1200 
      8 C8          6.2810    1.7037    0.0515 C.3       1 UNK        -0.1800 
      9 H9          1.3878    0.6051    1.6838 H         1 UNK         0.0600 
     10 H10         1.1766    2.3015    1.2359 H         1 UNK         0.0600 
     11 H11         2.4199    0.1482   -0.5718 H         1 UNK         0.0600 
     12 H12         2.2111    1.8258   -1.0148 H         1 UNK         0.0600 
     13 H13         3.7466    2.5088    0.8485 H         1 UNK         0.0600 
     14 H14         3.9554    0.8315    1.2914 H         1 UNK         0.0600 
     15 H15         4.9435    0.3583   -0.9674 H         1 UNK         0.0600 
     16 H16         4.7347    2.0352   -1.4102 H         1 UNK         0.0600 
     17 H17         7.0754    1.6071   -0.6888 H         1 UNK         0.0600 
     18 H18         6.3032    2.7254    0.4316 H         1 UNK         0.0600 
     19 H19         6.5140    1.0325    0.8786 H         1 UNK         0.0600 
@<TRIPOS>BOND
     1    1    2 1    
     2    1    3 1    
     3    1    9 1    
     4    1   10 1    
     5    2    4 1    
     6    2   11 1    
     7    2   12 1    
     8    3    5 2    
     9    3    6 1    
    10    4    7 1    
    11    4   13 1    
    12    4   14 1    
    13    7    8 1    
    14    7   15 1    
    15    7   16 1    
    16    8   17 1    
    17    8   18 1    
    18    8   19 1    
@<TRIPOS>SUBSTRUCTURE
     1 UNK         1 GROUP             0       ****    0 ROOT    
