@<TRIPOS>MOLECULE
title: molecule 1
15   14    1
SMALL
USER_CHARGES


@<TRIPOS>ATOM
      1 Cl1        -1.0652   -0.1042    0.1608 Cl        1 UNK        -0.2000 
      2 C2          0.4195    0.8800    0.1186 C.3       1 UNK        -0.0060 
      3 C3          1.6570   -0.0255    0.1281 C.3       1 UNK        -0.1200 
      4 C4          2.9691    0.7695    0.0927 C.3       1 UNK        -0.1200 
      5 C5          4.2024   -0.1411    0.1025 C.3       1 UNK        -0.0200 
      6 C6          5.4646    0.6128    0.0687 C.1       1 UNK         0.4600 
      7 N7          6.4573    1.2061    0.0422 N.1       1 UNK        -0.5600 
      8 H8          0.4036    1.5418    0.9850 H         1 UNK         0.1030 
      9 H9          0.3837    1.4961   -0.7803 H         1 UNK         0.1030 
     10 H10         1.6382   -0.6548    1.0187 H         1 UNK         0.0600 
     11 H11         1.6185   -0.7001   -0.7281 H         1 UNK         0.0600 
     12 H12         2.9918    1.3985   -0.7980 H         1 UNK         0.0600 
     13 H13         3.0115    1.4438    0.9490 H         1 UNK         0.0600 
     14 H14         4.2105   -0.7640    0.9971 H         1 UNK         0.0600 
     15 H15         4.1907   -0.8095   -0.7587 H         1 UNK         0.0600 
@<TRIPOS>BOND
     1    1    2 1    
     2    2    3 1    
     3    2    8 1    
     4    2    9 1    
     5    3    4 1    
     6    3   10 1    
     7    3   11 1    
     8    4    5 1    
     9    4   12 1    
    10    4   13 1    
    11    5    6 1    
    12    5   14 1    
    13    5   15 1    
    14    6    7 3    
@<TRIPOS>SUBSTRUCTURE
     1 UNK         1 GROUP             0       ****    0 ROOT    
