@<TRIPOS>MOLECULE
title: molecule 1
20   19    1
SMALL
USER_CHARGES


@<TRIPOS>ATOM
      1 Br1        -1.6667   -0.1832    0.2041 Br        1 UNK        -0.2039 
      2 C2         -0.0227    0.9372    0.1468 C.3       1 UNK        -0.1994 
      3 C3          1.2149    0.0328    0.1439 C.3       1 UNK        -0.0095 
      4 C4          2.5262    0.8304    0.1004 C.3       1 UNK        -0.1200 
      5 C5          3.7671   -0.0743    0.0974 C.3       1 UNK        -0.1200 
      6 C6          5.0783    0.7232    0.0539 C.3       1 UNK        -0.0095 
      7 C7          6.3159   -0.1811    0.0510 C.3       1 UNK        -0.1994 
      8 Br8         7.9600    0.9393   -0.0063 Br        1 UNK        -0.2039 
      9 H9         -0.0365    1.5950    1.0162 H         1 UNK         0.1464 
     10 H10        -0.0704    1.5543   -0.7509 H         1 UNK         0.1464 
     11 H11         1.2011   -0.5987    1.0330 H         1 UNK         0.0600 
     12 H12         1.1676   -0.6390   -0.7140 H         1 UNK         0.0600 
     13 H13         2.5362    1.4626   -0.7884 H         1 UNK         0.0600 
     14 H14         2.5697    1.5029    0.9581 H         1 UNK         0.0600 
     15 H15         3.7571   -0.7065    0.9862 H         1 UNK         0.0600 
     16 H16         3.7236   -0.7468   -0.7603 H         1 UNK         0.0600 
     17 H17         5.0922    1.3548   -0.8352 H         1 UNK         0.0600 
     18 H18         5.1257    1.3950    0.9118 H         1 UNK         0.0600 
     19 H19         6.3636   -0.7982    0.9487 H         1 UNK         0.1464 
     20 H20         6.3298   -0.8390   -0.8184 H         1 UNK         0.1464 
@<TRIPOS>BOND
     1    1    2 1    
     2    2    3 1    
     3    2    9 1    
     4    2   10 1    
     5    3    4 1    
     6    3   11 1    
     7    3   12 1    
     8    4    5 1    
     9    4   13 1    
    10    4   14 1    
    11    5    6 1    
    12    5   15 1    
    13    5   16 1    
    14    6    7 1    
    15    6   17 1    
    16    6   18 1    
    17    7    8 1    
    18    7   19 1    
    19    7   20 1    
@<TRIPOS>SUBSTRUCTURE
     1 UNK         1 GROUP             0       ****    0 ROOT    
