@<TRIPOS>MOLECULE
title: molecule 1
22   21    1
SMALL
USER_CHARGES


@<TRIPOS>ATOM
      1 C1          7.3712   -0.6249    0.1090 C.3       1 UNK         0.1450 
      2 C2          6.0953    0.2274    0.1112 C.3       1 UNK        -0.1200 
      3 O3          8.5057    0.2144    0.1189 O.3       1 UNK        -0.6830 
      4 C4          4.8183   -0.6254    0.1007 C.3       1 UNK        -0.1200 
      5 C5          3.5401    0.2259    0.1030 C.3       1 UNK        -0.1200 
      6 C6          2.2632   -0.6269    0.0925 C.3       1 UNK        -0.1200 
      7 C7          0.9873    0.2254    0.0947 C.3       1 UNK         0.1450 
      8 O8         -0.1472   -0.6139    0.0848 O.3       1 UNK        -0.6830 
      9 H9          7.4018   -1.2753    0.9837 H         1 UNK         0.0600 
     10 H10         7.4074   -1.2622   -0.7752 H         1 UNK         0.0600 
     11 H11         6.0926    0.8739    0.9899 H         1 UNK         0.0600 
     12 H12         6.0983    0.8870   -0.7577 H         1 UNK         0.0600 
     13 H13         9.2812   -0.3260    0.1173 H         1 UNK         0.4180 
     14 H14         4.8218   -1.2720   -0.7777 H         1 UNK         0.0600 
     15 H15         4.8162   -1.2850    0.9695 H         1 UNK         0.0600 
     16 H16         3.5367    0.8725    0.9814 H         1 UNK         0.0600 
     17 H17         3.5423    0.8855   -0.7658 H         1 UNK         0.0600 
     18 H18         2.2659   -1.2734   -0.7862 H         1 UNK         0.0600 
     19 H19         2.2602   -1.2865    0.9614 H         1 UNK         0.0600 
     20 H20         0.9511    0.8627    0.9789 H         1 UNK         0.0600 
     21 H21         0.9567    0.8758   -0.7800 H         1 UNK         0.0600 
     22 H22        -0.9227   -0.0735    0.0864 H         1 UNK         0.4180 
@<TRIPOS>BOND
     1    1    2 1    
     2    1    3 1    
     3    1    9 1    
     4    1   10 1    
     5    2    4 1    
     6    2   11 1    
     7    2   12 1    
     8    3   13 1    
     9    4    5 1    
    10    4   14 1    
    11    4   15 1    
    12    5    6 1    
    13    5   16 1    
    14    5   17 1    
    15    6    7 1    
    16    6   18 1    
    17    6   19 1    
    18    7    8 1    
    19    7   20 1    
    20    7   21 1    
    21    8   22 1    
@<TRIPOS>SUBSTRUCTURE
     1 UNK         1 GROUP             0       ****    0 ROOT    
