@<TRIPOS>MOLECULE
title: molecule 1
23   22    1
SMALL
USER_CHARGES


@<TRIPOS>ATOM
      1 C1         -1.1596    0.0369    0.1590 C.3       1 UNK        -0.1800 
      2 C2          0.1301    0.8645    0.1282 C.3       1 UNK        -0.1200 
      3 C3          1.3922   -0.0100    0.1313 C.3       1 UNK        -0.1200 
      4 C4          2.6844    0.8191    0.1004 C.3       1 UNK        -0.1200 
      5 C5          3.9466   -0.0556    0.1035 C.3       1 UNK        -0.1200 
      6 C6          5.2386    0.7735    0.0726 C.3       1 UNK        -0.1200 
      7 C7          6.4980   -0.1013    0.0757 C.3       1 UNK        -0.0060 
      8 Cl8         7.9583    0.9189    0.0391 Cl        1 UNK        -0.2000 
      9 H9         -2.0367    0.6843    0.1561 H         1 UNK         0.0600 
     10 H10        -1.2276   -0.6191   -0.7092 H         1 UNK         0.0600 
     11 H11        -1.2078   -0.5842    1.0539 H         1 UNK         0.0600 
     12 H12         0.1271    1.5001   -0.7581 H         1 UNK         0.0600 
     13 H13         0.1467    1.5347    0.9884 H         1 UNK         0.0600 
     14 H14         1.3902   -0.6456    1.0177 H         1 UNK         0.0600 
     15 H15         1.3705   -0.6802   -0.7290 H         1 UNK         0.0600 
     16 H16         2.6860    1.4547   -0.7861 H         1 UNK         0.0600 
     17 H17         2.7057    1.4893    0.9607 H         1 UNK         0.0600 
     18 H18         3.9450   -0.6911    0.9900 H         1 UNK         0.0600 
     19 H19         3.9254   -0.7257   -0.7569 H         1 UNK         0.0600 
     20 H20         5.2426    1.4086   -0.8141 H         1 UNK         0.0600 
     21 H21         5.2622    1.4432    0.9331 H         1 UNK         0.0600 
     22 H22         6.5491   -0.7220    0.9707 H         1 UNK         0.1030 
     23 H23         6.5292   -0.7570   -0.7949 H         1 UNK         0.1030 
@<TRIPOS>BOND
     1    1    2 1    
     2    1    9 1    
     3    1   10 1    
     4    1   11 1    
     5    2    3 1    
     6    2   12 1    
     7    2   13 1    
     8    3    4 1    
     9    3   14 1    
    10    3   15 1    
    11    4    5 1    
    12    4   16 1    
    13    4   17 1    
    14    5    6 1    
    15    5   18 1    
    16    5   19 1    
    17    6    7 1    
    18    6   20 1    
    19    6   21 1    
    20    7    8 1    
    21    7   22 1    
    22    7   23 1    
@<TRIPOS>SUBSTRUCTURE
     1 UNK         1 GROUP             0       ****    0 ROOT    
