@<TRIPOS>MOLECULE
title: molecule 1
20   19    1
SMALL
USER_CHARGES


@<TRIPOS>ATOM
      1 C1          3.9038    0.7164    0.1043 C.3       1 UNK        -0.1200 
      2 C2          2.6748   -0.1997    0.1071 C.3       1 UNK         0.1400 
      3 C3          5.2196   -0.0733    0.1175 C.3       1 UNK         0.0600 
      4 O4          1.5047    0.6008    0.0916 O.3       1 UNK        -0.4000 
      5 N5          6.3469    0.8384    0.1190 N.3       1 UNK        -0.9000 
      6 C6          0.3139   -0.1685    0.0942 C.3       1 UNK         0.1400 
      7 C7         -0.8881    0.7785    0.0767 C.3       1 UNK        -0.1800 
      8 H8          3.8688    1.3601   -0.7757 H         1 UNK         0.0600 
      9 H9          3.8617    1.3752    0.9728 H         1 UNK         0.0600 
     10 H10         2.6922   -0.8530   -0.7667 H         1 UNK         0.0300 
     11 H11         2.6823   -0.8340    0.9950 H         1 UNK         0.0300 
     12 H12         5.2754   -0.7099    1.0011 H         1 UNK         0.0600 
     13 H13         5.2853   -0.7210   -0.7573 H         1 UNK         0.0600 
     14 H14         7.2104    0.3150    0.0864 H         1 UNK         0.3600 
     15 H15         6.3256    1.4110   -0.7129 H         1 UNK         0.3600 
     16 H16         0.2853   -0.8217   -0.7792 H         1 UNK         0.0300 
     17 H17         0.2758   -0.8011    0.9823 H         1 UNK         0.0300 
     18 H18        -1.8243    0.2200    0.0782 H         1 UNK         0.0600 
     19 H19        -0.8854    1.4300    0.9509 H         1 UNK         0.0600 
     20 H20        -0.8760    1.4095   -0.8123 H         1 UNK         0.0600 
@<TRIPOS>BOND
     1    1    2 1    
     2    1    3 1    
     3    1    8 1    
     4    1    9 1    
     5    2    4 1    
     6    2   10 1    
     7    2   11 1    
     8    3    5 1    
     9    3   12 1    
    10    3   13 1    
    11    4    6 1    
    12    5   14 1    
    13    5   15 1    
    14    6    7 1    
    15    6   16 1    
    16    6   17 1    
    17    7   18 1    
    18    7   19 1    
    19    7   20 1    
@<TRIPOS>SUBSTRUCTURE
     1 UNK         1 GROUP             0       ****    0 ROOT    
