@<TRIPOS>MOLECULE
title: molecule 1
16   16    1
SMALL
USER_CHARGES


@<TRIPOS>ATOM
      1 C1          2.6892    0.5443    0.1584 C.ar      1 UNK        -0.1150 
      2 C2          1.2823    0.5277    0.1352 C.ar      1 UNK         0.1800 
      3 C3          3.4025    1.7631    0.1290 C.ar      1 UNK         0.0900 
      4 C4          0.5700    1.7431    0.0809 C.ar      1 UNK         0.1800 
      5 Cl5         0.4538   -0.9876    0.1817 Cl        1 UNK        -0.1800 
      6 C6          2.6845    2.9880    0.0506 C.ar      1 UNK         0.0900 
      7 N7          4.8716    1.7204    0.2059 N.pl3     1 UNK         0.6500 
      8 C8          1.2723    2.9619    0.0395 C.ar      1 UNK        -0.1150 
      9 Cl9        -1.1574    1.7616    0.0564 Cl        1 UNK        -0.1800 
     10 N10         3.3647    4.2895   -0.0448 N.pl3     1 UNK         0.6500 
     11 O11         5.4539    0.9182   -0.5158 O.co2     1 UNK        -0.3700 
     12 O12         5.4301    2.4593    1.0095 O.co2     1 UNK        -0.3700 
     13 O13         4.2721    4.4091   -0.8611 O.co2     1 UNK        -0.3700 
     14 O14         2.9593    5.1952    0.6753 O.co2     1 UNK        -0.3700 
     15 H15         3.2270   -0.3912    0.2148 H         1 UNK         0.1150 
     16 H16         0.7187    3.8882   -0.0168 H         1 UNK         0.1150 
@<TRIPOS>BOND
     1    1    2 ar   
     2    1    3 ar   
     3    1   15 1    
     4    2    4 ar   
     5    2    5 1    
     6    3    6 ar   
     7    3    7 1    
     8    4    8 ar   
     9    4    9 1    
    10    6    8 ar   
    11    6   10 1    
    12    7   11 2    
    13    7   12 1    
    14    8   16 1    
    15   10   13 2    
    16   10   14 1    
@<TRIPOS>SUBSTRUCTURE
     1 UNK         1 GROUP             0       ****    0 ROOT    
