@<TRIPOS>MOLECULE
title: molecule 1
20   21    1
SMALL
USER_CHARGES


@<TRIPOS>ATOM
      1 O1          0.0936   -0.0591    0.4816 O.3       1 UNK        -0.6830 
      2 C2          0.4214    1.2285    0.9618 C.3       1 UNK         0.3200 
      3 C3          1.8533    1.6241    0.7145 C.ar      1 UNK        -0.1150 
      4 C4         -0.3891    2.3331    0.2371 C.3       1 UNK        -0.1200 
      5 C5          1.9401    2.9025    0.1747 C.ar      1 UNK        -0.1150 
      6 C6          3.0074    0.8631    0.9749 C.ar      1 UNK        -0.1150 
      7 C7          0.5785    3.5135   -0.0181 C.3       1 UNK        -0.0050 
      8 C8          3.1832    3.4835   -0.1319 C.ar      1 UNK        -0.1150 
      9 C9          4.2649    1.4310    0.6726 C.ar      1 UNK        -0.1150 
     10 C10         4.3522    2.7326    0.1233 C.ar      1 UNK        -0.1150 
     11 H11        -0.8168   -0.2277    0.6700 H         1 UNK         0.4180 
     12 H12         0.2400    1.2695    2.0364 H         1 UNK         0.0600 
     13 H13        -1.2948    2.6235    0.7700 H         1 UNK         0.0600 
     14 H14        -0.7034    1.9565   -0.7378 H         1 UNK         0.0600 
     15 H15         2.9330   -0.1294    1.3945 H         1 UNK         0.1150 
     16 H16         0.4347    4.3077    0.7151 H         1 UNK         0.0600 
     17 H17         0.4636    3.9342   -1.0175 H         1 UNK         0.0600 
     18 H18         3.2434    4.4766   -0.5522 H         1 UNK         0.1150 
     19 H19         5.1666    0.8675    0.8624 H         1 UNK         0.1150 
     20 H20         5.3202    3.1548   -0.1033 H         1 UNK         0.1150 
@<TRIPOS>BOND
     1    1    2 1    
     2    1   11 1    
     3    2    3 1    
     4    2    4 1    
     5    2   12 1    
     6    3    5 ar   
     7    3    6 ar   
     8    4    7 1    
     9    4   13 1    
    10    4   14 1    
    11    5    8 ar   
    12    5    7 1    
    13    6    9 ar   
    14    6   15 1    
    15    7   16 1    
    16    7   17 1    
    17    8   10 ar   
    18    8   18 1    
    19    9   10 ar   
    20    9   19 1    
    21   10   20 1    
@<TRIPOS>SUBSTRUCTURE
     1 UNK         1 GROUP             0       ****    0 ROOT    
