@<TRIPOS>MOLECULE
title: molecule 1
14   14    1
SMALL
USER_CHARGES


@<TRIPOS>ATOM
      1 Cl1         3.7411    4.6063    0.2373 Cl        1 UNK        -0.1800 
      2 C2          2.9109    3.0928    0.1626 C.ar      1 UNK         0.1800 
      3 C3          3.6244    1.8757    0.1056 C.ar      1 UNK         0.1800 
      4 C4          1.5020    3.0799    0.1587 C.ar      1 UNK        -0.1150 
      5 Cl5         5.3521    1.8577    0.1087 Cl        1 UNK        -0.1800 
      6 C6          2.9235    0.6553    0.0453 C.ar      1 UNK        -0.1150 
      7 C7          0.7999    1.8592    0.0984 C.ar      1 UNK         0.1800 
      8 C8          1.5149    0.6414    0.0414 C.ar      1 UNK         0.1800 
      9 N9         -0.5953    1.8710    0.0957 N.pl3     1 UNK        -0.9000 
     10 Cl10        0.6875   -0.8751   -0.0335 Cl        1 UNK        -0.1800 
     11 H11         0.9610    4.0141    0.2024 H         1 UNK         0.1150 
     12 H12         3.4695   -0.2757    0.0017 H         1 UNK         0.1150 
     13 H13        -1.1260    1.0122    0.0532 H         1 UNK         0.3600 
     14 H14        -1.1208    2.7325    0.1360 H         1 UNK         0.3600 
@<TRIPOS>BOND
     1    1    2 1    
     2    2    3 ar   
     3    2    4 ar   
     4    3    5 1    
     5    3    6 ar   
     6    4    7 ar   
     7    4   11 1    
     8    6    8 ar   
     9    6   12 1    
    10    7    8 ar   
    11    7    9 1    
    12    8   10 1    
    13    9   13 1    
    14    9   14 1    
@<TRIPOS>SUBSTRUCTURE
     1 UNK         1 GROUP             0       ****    0 ROOT    
