@<TRIPOS>MOLECULE
title: molecule 1
16   16    1
SMALL
USER_CHARGES


@<TRIPOS>ATOM
      1 Cl1         4.2383   -6.0788    0.0964 Cl        1 UNK        -0.1800 
      2 C2          3.4432   -4.5410    0.0970 C.ar      1 UNK         0.1800 
      3 C3          2.0354   -4.5224    0.1119 C.ar      1 UNK        -0.1150 
      4 C4          4.1618   -3.3190    0.0832 C.ar      1 UNK        -0.1150 
      5 C5          1.3353   -3.3023    0.1131 C.ar      1 UNK        -0.1150 
      6 C6          3.4485   -2.0975    0.0845 C.ar      1 UNK        -0.1150 
      7 C7          5.6471   -3.2904    0.0672 C.2       1 UNK         0.5650 
      8 C8          2.0344   -2.0746    0.0995 C.ar      1 UNK         0.0900 
      9 O9          6.3209   -2.2611    0.0548 O.2       1 UNK        -0.4500 
     10 N10         1.3015   -0.7925    0.1007 N.pl3     1 UNK         0.6500 
     11 O11         1.9505    0.2485    0.0885 O.co2     1 UNK        -0.3700 
     12 O12         0.0752   -0.8247    0.1139 O.co2     1 UNK        -0.3700 
     13 H13         1.4858   -5.4523    0.1225 H         1 UNK         0.1150 
     14 H14         0.2553   -3.3209    0.1247 H         1 UNK         0.1150 
     15 H15         3.9939   -1.1645    0.0740 H         1 UNK         0.1150 
     16 H16         6.1290   -4.2671    0.0671 H         1 UNK         0.0000 
@<TRIPOS>BOND
     1    1    2 1    
     2    2    3 ar   
     3    2    4 ar   
     4    3    5 ar   
     5    3   13 1    
     6    4    6 ar   
     7    4    7 1    
     8    5    8 ar   
     9    5   14 1    
    10    6    8 ar   
    11    6   15 1    
    12    7    9 2    
    13    7   16 1    
    14    8   10 1    
    15   10   11 2    
    16   10   12 1    
@<TRIPOS>SUBSTRUCTURE
     1 UNK         1 GROUP             0       ****    0 ROOT    
