@<TRIPOS>MOLECULE
title: molecule 1
22   21    1
SMALL
USER_CHARGES


@<TRIPOS>ATOM
      1 C1          3.1904   -1.3138    0.0785 C.3       1 UNK        -0.1200 
      2 C2          2.0730   -0.2656    0.1605 C.3       1 UNK         0.0800 
      3 C3          4.5889   -0.6848    0.1469 C.3       1 UNK        -0.1200 
      4 N4          0.7135   -0.8826    0.0936 N.pl3     1 UNK         0.5400 
      5 C5          5.7105   -1.7305    0.0651 C.3       1 UNK        -0.1200 
      6 O6          0.1884   -1.2142    1.1503 O.co2     1 UNK        -0.3700 
      7 O7          0.2085   -1.0234   -1.0144 O.co2     1 UNK        -0.3700 
      8 C8          7.1096   -1.1015    0.1335 C.3       1 UNK        -0.1200 
      9 C9          8.2289   -2.1453    0.0518 C.3       1 UNK        -0.1800 
     10 H10         3.0723   -2.0314    0.8914 H         1 UNK         0.0600 
     11 H11         3.0884   -1.8780   -0.8494 H         1 UNK         0.0600 
     12 H12         2.1126    0.2921    1.0971 H         1 UNK         0.0600 
     13 H13         2.1289    0.4472   -0.6632 H         1 UNK         0.0600 
     14 H14         4.7030    0.0338   -0.6659 H         1 UNK         0.0600 
     15 H15         4.6869   -0.1197    1.0747 H         1 UNK         0.0600 
     16 H16         5.5965   -2.4492    0.8777 H         1 UNK         0.0600 
     17 H17         5.6126   -2.2958   -0.8627 H         1 UNK         0.0600 
     18 H18         7.2287   -0.3838   -0.6791 H         1 UNK         0.0600 
     19 H19         7.2126   -0.5372    1.0611 H         1 UNK         0.0600 
     20 H20         9.2083   -1.6694    0.1028 H         1 UNK         0.0600 
     21 H21         8.1628   -2.8590    0.8735 H         1 UNK         0.0600 
     22 H22         8.1791   -2.7041   -0.8831 H         1 UNK         0.0600 
@<TRIPOS>BOND
     1    1    2 1    
     2    1    3 1    
     3    1   10 1    
     4    1   11 1    
     5    2    4 1    
     6    2   12 1    
     7    2   13 1    
     8    3    5 1    
     9    3   14 1    
    10    3   15 1    
    11    4    6 2    
    12    4    7 1    
    13    5    8 1    
    14    5   16 1    
    15    5   17 1    
    16    8    9 1    
    17    8   18 1    
    18    8   19 1    
    19    9   20 1    
    20    9   21 1    
    21    9   22 1    
@<TRIPOS>SUBSTRUCTURE
     1 UNK         1 GROUP             0       ****    0 ROOT    
