@<TRIPOS>MOLECULE
title: molecule 1
15   15    1
SMALL
USER_CHARGES


@<TRIPOS>ATOM
      1 O1         -0.0311   -2.1729    0.1198 O.3       1 UNK        -0.5300 
      2 C2          0.5718   -0.9487    0.1094 C.2       1 UNK         0.6350 
      3 O3         -0.0565    0.1085    0.1066 O.2       1 UNK        -0.4400 
      4 C4          2.0761   -0.9868    0.1015 C.ar      1 UNK        -0.1150 
      5 C5          2.8130    0.2204    0.0904 C.ar      1 UNK        -0.1150 
      6 C6          2.7782   -2.2161    0.1049 C.ar      1 UNK        -0.1150 
      7 C7          4.2214    0.2004    0.0829 C.ar      1 UNK        -0.1150 
      8 C8          4.1867   -2.2348    0.0973 C.ar      1 UNK        -0.1150 
      9 C9          4.9091   -1.0272    0.0864 C.ar      1 UNK        -0.1150 
     10 H10        -0.9731   -2.1038    0.1245 H         1 UNK         0.4500 
     11 H11         2.3045    1.1739    0.0876 H         1 UNK         0.1150 
     12 H12         2.2503   -3.1585    0.1132 H         1 UNK         0.1150 
     13 H13         4.7739    1.1284    0.0745 H         1 UNK         0.1150 
     14 H14         4.7133   -3.1778    0.1000 H         1 UNK         0.1150 
     15 H15         5.9891   -1.0425    0.0806 H         1 UNK         0.1150 
@<TRIPOS>BOND
     1    1    2 1    
     2    1   10 1    
     3    2    3 2    
     4    2    4 1    
     5    4    5 ar   
     6    4    6 ar   
     7    5    7 ar   
     8    5   11 1    
     9    6    8 ar   
    10    6   12 1    
    11    7    9 ar   
    12    7   13 1    
    13    8    9 ar   
    14    8   14 1    
    15    9   15 1    
@<TRIPOS>SUBSTRUCTURE
     1 UNK         1 GROUP             0       ****    0 ROOT    
