@<TRIPOS>MOLECULE
title: molecule 1
14   14    1
SMALL
USER_CHARGES


@<TRIPOS>ATOM
      1 S1          2.1433   -1.2430    0.2479 S.3       1 UNK         0.0328 
      2 C2          0.8374   -0.0909    0.0967 C.2       1 UNK        -0.1787 
      3 C3          3.3230   -0.0046   -0.0871 C.2       1 UNK        -0.3255 
      4 C4         -0.5362   -0.5604    0.2856 C.2       1 UNK         0.5850 
      5 C5          1.3095    1.1648   -0.1947 C.2       1 UNK        -0.0738 
      6 C6          2.7312    1.2128   -0.2995 C.2       1 UNK        -0.0738 
      7 O7         -0.7923   -1.7370    0.5461 O.2       1 UNK        -0.4700 
      8 C8         -1.6784    0.4555    0.1516 C.3       1 UNK         0.6000 
      9 F9         -1.5338    1.4272    1.0530 F         1 UNK        -0.2000 
     10 F10        -1.6756    0.9877   -1.0709 F         1 UNK        -0.2000 
     11 F11        -2.8567   -0.1366    0.3528 F         1 UNK        -0.2000 
     12 H12         4.3749   -0.2492   -0.1067 H         1 UNK         0.2618 
     13 H13         0.6979    2.0439   -0.3358 H         1 UNK         0.1211 
     14 H14         3.2626    2.1260   -0.5240 H         1 UNK         0.1211 
@<TRIPOS>BOND
     1    1    2 1    
     2    1    3 1    
     3    2    4 1    
     4    2    5 2    
     5    3    6 2    
     6    3   12 1    
     7    4    7 2    
     8    4    8 1    
     9    5    6 1    
    10    5   13 1    
    11    6   14 1    
    12    8    9 1    
    13    8   10 1    
    14    8   11 1    
@<TRIPOS>SUBSTRUCTURE
     1 UNK         1 GROUP             0       ****    0 ROOT    
