@<TRIPOS>MOLECULE
title: molecule 1
17   17    1
SMALL
USER_CHARGES


@<TRIPOS>ATOM
      1 C1          2.8785    1.7194   -0.0128 C.ar      1 UNK         0.0900 
      2 C2          1.4642    1.7165    0.1465 C.ar      1 UNK         0.0900 
      3 C3          3.5708    2.9492   -0.0679 C.ar      1 UNK        -0.1150 
      4 N4          3.6509    0.4727   -0.1414 N.pl3     1 UNK         0.6500 
      5 C5          0.7715    2.9532    0.2158 C.ar      1 UNK         0.1500 
      6 N6          0.7188    0.4521    0.2730 N.pl3     1 UNK         0.6500 
      7 C7          2.8764    4.1686    0.0119 C.ar      1 UNK        -0.1150 
      8 O8          3.2453   -0.3826   -0.9213 O.co2     1 UNK        -0.3700 
      9 O9          4.6808    0.3732    0.5164 O.co2     1 UNK        -0.3700 
     10 C10         1.4781    4.1690    0.1481 C.ar      1 UNK        -0.1150 
     11 O11        -0.5868    3.0044    0.3653 O.3       1 UNK        -0.5850 
     12 O12         1.0738   -0.3371    1.1418 O.co2     1 UNK        -0.3700 
     13 O13        -0.2305    0.2693   -0.4816 O.co2     1 UNK        -0.3700 
     14 H14         4.6448    2.9601   -0.1857 H         1 UNK         0.1150 
     15 H15         3.4156    5.1033   -0.0368 H         1 UNK         0.1150 
     16 H16         0.9461    5.1075    0.2066 H         1 UNK         0.1150 
     17 H17        -1.0055    2.1572    0.3234 H         1 UNK         0.4350 
@<TRIPOS>BOND
     1    1    2 ar   
     2    1    3 ar   
     3    1    4 1    
     4    2    5 ar   
     5    2    6 1    
     6    3    7 ar   
     7    3   14 1    
     8    4    8 2    
     9    4    9 1    
    10    5   10 ar   
    11    5   11 1    
    12    6   12 2    
    13    6   13 1    
    14    7   10 ar   
    15    7   15 1    
    16   10   16 1    
    17   11   17 1    
@<TRIPOS>SUBSTRUCTURE
     1 UNK         1 GROUP             0       ****    0 ROOT    
