@<TRIPOS>MOLECULE
title: molecule 1
37   40    1
SMALL
USER_CHARGES


@<TRIPOS>ATOM
      1 O1          7.5810   -0.7144    2.3486 O.2       1 UNK        -0.4300 
      2 C2          7.9173   -1.5056    1.4689 C.2       1 UNK         0.5100 
      3 O3          9.1977   -1.9936    1.4301 O.3       1 UNK        -0.2150 
      4 C4          6.9860   -1.9841    0.3969 C.2       1 UNK         0.0000 
      5 C5          9.6558   -2.8669    0.4688 C.ar      1 UNK         0.1350 
      6 C6          7.4346   -2.8306   -0.5556 C.2       1 UNK         0.0488 
      7 C7          5.5520   -1.4423    0.4290 C.3       1 UNK        -0.1200 
      8 C8         10.9953   -3.3020    0.5280 C.ar      1 UNK        -0.1150 
      9 C9          8.8142   -3.3264   -0.5649 C.ar      1 UNK         0.0000 
     10 O10         6.6513   -3.2619   -1.5556 O.3       1 UNK        -0.4040 
     11 C11         4.5142   -2.5386    0.6911 C.2       1 UNK         0.0000 
     12 C12        11.4959   -4.1934   -0.4401 C.ar      1 UNK        -0.1150 
     13 C13         9.3177   -4.2218   -1.5363 C.ar      1 UNK        -0.1150 
     14 C14         3.6678   -3.0058   -0.2526 C.2       1 UNK         0.0488 
     15 C15         4.4360   -3.0617    2.0910 C.2       1 UNK         0.5100 
     16 C16        10.6567   -4.6532   -1.4724 C.ar      1 UNK        -0.1150 
     17 O17         3.6855   -2.5511   -1.5147 O.3       1 UNK        -0.4040 
     18 C18         2.6745   -4.0439    0.0433 C.ar      1 UNK         0.0000 
     19 O19         3.4986   -4.0321    2.3304 O.3       1 UNK        -0.2150 
     20 O20         5.1622   -2.6577    2.9972 O.2       1 UNK        -0.4300 
     21 C21         1.7786   -4.5711   -0.9159 C.ar      1 UNK        -0.1150 
     22 C22         2.6420   -4.5225    1.3699 C.ar      1 UNK         0.1350 
     23 C23         0.8568   -5.5697   -0.5471 C.ar      1 UNK        -0.1150 
     24 C24         1.7170   -5.5223    1.7327 C.ar      1 UNK        -0.1150 
     25 C25         0.8256   -6.0456    0.7770 C.ar      1 UNK        -0.1150 
     26 H26         5.4204   -0.6509    1.1675 H         1 UNK         0.0600 
     27 H27         5.3617   -0.9556   -0.5275 H         1 UNK         0.0600 
     28 H28        11.6419   -2.9508    1.3189 H         1 UNK         0.1150 
     29 H29         5.7966   -2.8736   -1.4368 H         1 UNK         0.3552 
     30 H30        12.5229   -4.5240   -0.3906 H         1 UNK         0.1150 
     31 H31         8.6865   -4.5846   -2.3341 H         1 UNK         0.1150 
     32 H32        11.0395   -5.3372   -2.2154 H         1 UNK         0.1150 
     33 H33         3.0011   -2.9986   -1.9881 H         1 UNK         0.3552 
     34 H34         1.7844   -4.2226   -1.9378 H         1 UNK         0.1150 
     35 H35         0.1733   -5.9713   -1.2808 H         1 UNK         0.1150 
     36 H36         1.6905   -5.8895    2.7482 H         1 UNK         0.1150 
     37 H37         0.1186   -6.8117    1.0598 H         1 UNK         0.1150 
@<TRIPOS>BOND
     1    1    2 2    
     2    2    3 1    
     3    2    4 1    
     4    3    5 1    
     5    4    6 2    
     6    4    7 1    
     7    5    8 ar   
     8    5    9 ar   
     9    6    9 1    
    10    6   10 1    
    11    7   11 1    
    12    7   26 1    
    13    7   27 1    
    14    8   12 ar   
    15    8   28 1    
    16    9   13 ar   
    17   10   29 1    
    18   11   14 2    
    19   11   15 1    
    20   12   16 ar   
    21   12   30 1    
    22   13   16 ar   
    23   13   31 1    
    24   14   17 1    
    25   14   18 1    
    26   15   19 1    
    27   15   20 2    
    28   16   32 1    
    29   17   33 1    
    30   18   21 ar   
    31   18   22 ar   
    32   19   22 1    
    33   21   23 ar   
    34   21   34 1    
    35   22   24 ar   
    36   23   25 ar   
    37   23   35 1    
    38   24   25 ar   
    39   24   36 1    
    40   25   37 1    
@<TRIPOS>SUBSTRUCTURE
     1 UNK         1 GROUP             0       ****    0 ROOT    
