@<TRIPOS>MOLECULE
title: molecule 1
17   16    1
SMALL
USER_CHARGES


@<TRIPOS>ATOM
      1 C1          2.6513    0.5090    0.0543 C.2       1 UNK         0.4500 
      2 C2          1.3630   -0.1891    0.0884 C.2       1 UNK        -0.1150 
      3 O3          3.6942    0.0163    0.4786 O.2       1 UNK        -0.4500 
      4 C4          0.2516    0.3959   -0.3893 C.2       1 UNK        -0.1150 
      5 C5         -1.1179   -0.2517   -0.3941 C.3       1 UNK        -0.1200 
      6 C6         -2.1465    0.5734    0.3912 C.3       1 UNK        -0.1200 
      7 C7         -3.5388   -0.0671    0.3884 C.3       1 UNK        -0.1800 
      8 H8          2.6279    1.5098   -0.3780 H         1 UNK         0.0000 
      9 H9          1.3325   -1.1844    0.5077 H         1 UNK         0.1150 
     10 H10         0.2996    1.3924   -0.8063 H         1 UNK         0.1150 
     11 H11        -1.4400   -0.3618   -1.4301 H         1 UNK         0.0600 
     12 H12        -1.0492   -1.2574    0.0228 H         1 UNK         0.0600 
     13 H13        -1.8091    0.6939    1.4214 H         1 UNK         0.0600 
     14 H14        -2.2127    1.5768   -0.0313 H         1 UNK         0.0600 
     15 H15        -4.2468    0.5400    0.9530 H         1 UNK         0.0600 
     16 H16        -3.9236   -0.1689   -0.6267 H         1 UNK         0.0600 
     17 H17        -3.5170   -1.0591    0.8404 H         1 UNK         0.0600 
@<TRIPOS>BOND
     1    1    2 1    
     2    1    3 2    
     3    1    8 1    
     4    2    4 2    
     5    2    9 1    
     6    4    5 1    
     7    4   10 1    
     8    5    6 1    
     9    5   11 1    
    10    5   12 1    
    11    6    7 1    
    12    6   13 1    
    13    6   14 1    
    14    7   15 1    
    15    7   16 1    
    16    7   17 1    
@<TRIPOS>SUBSTRUCTURE
     1 UNK         1 GROUP             0       ****    0 ROOT    
