@<TRIPOS>MOLECULE
title: molecule 1
17   17    1
SMALL
USER_CHARGES


@<TRIPOS>ATOM
      1 C1          2.8866   -0.9152    0.1684 C.3       1 UNK        -0.1800 
      2 C2          1.4750   -0.3694    0.1026 C.2       1 UNK         0.0000 
      3 C3          0.3347   -1.2565    0.1546 C.2       1 UNK        -0.1150 
      4 C4          1.2577    0.9551   -0.0074 C.2       1 UNK        -0.1150 
      5 C5         -0.9076   -0.7477    0.0946 C.2       1 UNK         0.0850 
      6 C6         -0.1125    1.5193   -0.0747 C.2       1 UNK         0.5100 
      7 C7         -2.1758   -1.5719    0.1376 C.3       1 UNK        -0.1800 
      8 O8         -1.1410    0.6064   -0.0180 O.3       1 UNK        -0.1650 
      9 O9         -0.3205    2.7265   -0.1750 O.2       1 UNK        -0.4300 
     10 H10         3.4363   -0.4513    0.9879 H         1 UNK         0.0600 
     11 H11         2.8860   -1.9939    0.3280 H         1 UNK         0.0600 
     12 H12         3.4161   -0.7088   -0.7621 H         1 UNK         0.0600 
     13 H13         0.4780   -2.3239    0.2408 H         1 UNK         0.1150 
     14 H14         2.0882    1.6449   -0.0495 H         1 UNK         0.1150 
     15 H15        -3.0450   -0.9373    0.3128 H         1 UNK         0.0600 
     16 H16        -2.3172   -2.0958   -0.8079 H         1 UNK         0.0600 
     17 H17        -2.1247   -2.3102    0.9382 H         1 UNK         0.0600 
@<TRIPOS>BOND
     1    1    2 1    
     2    1   10 1    
     3    1   11 1    
     4    1   12 1    
     5    2    3 1    
     6    2    4 2    
     7    3    5 2    
     8    3   13 1    
     9    4    6 1    
    10    4   14 1    
    11    5    7 1    
    12    5    8 1    
    13    6    9 2    
    14    6    8 1    
    15    7   15 1    
    16    7   16 1    
    17    7   17 1    
@<TRIPOS>SUBSTRUCTURE
     1 UNK         1 GROUP             0       ****    0 ROOT    
