@<TRIPOS>MOLECULE
title: molecule 1
12   12    1
SMALL
USER_CHARGES


@<TRIPOS>ATOM
      1 C1          0.0375   -0.8901    0.0775 C.3       1 UNK        -0.0650 
      2 C2          1.5285   -0.8675    0.0875 C.ar      1 UNK         0.2380 
      3 N3          2.2768    0.2311    0.0761 N.2       1 UNK        -0.5630 
      4 N4          2.2669   -1.9834    0.1095 N.pl3     1 UNK        -0.2570 
      5 C5          3.5931   -0.2339    0.0922 C.ar      1 UNK         0.1850 
      6 C6          3.5995   -1.6099    0.1130 C.ar      1 UNK        -0.2860 
      7 H7         -0.3340   -1.9153    0.0862 H         1 UNK         0.0600 
      8 H8         -0.3487   -0.3714    0.9551 H         1 UNK         0.0600 
      9 H9         -0.3364   -0.3911   -0.8167 H         1 UNK         0.0600 
     10 H10         1.9135   -2.9294    0.1214 H         1 UNK         0.3060 
     11 H11         4.4263    0.4534    0.0874 H         1 UNK         0.0750 
     12 H12         4.4087   -2.3250    0.1294 H         1 UNK         0.1870 
@<TRIPOS>BOND
     1    1    2 1    
     2    1    7 1    
     3    1    8 1    
     4    1    9 1    
     5    2    3 ar   
     6    2    4 ar   
     7    3    5 ar   
     8    4    6 ar   
     9    4   10 1    
    10    5    6 ar   
    11    5   11 1    
    12    6   12 1    
@<TRIPOS>SUBSTRUCTURE
     1 UNK         1 GROUP             0       ****    0 ROOT    
