@<TRIPOS>MOLECULE
title: molecule 1
18   18    1
SMALL
USER_CHARGES


@<TRIPOS>ATOM
      1 C1         -0.6936   -0.0511    0.3394 C.3       1 UNK        -0.1800 
      2 C2          0.2509    1.1232    0.6230 C.3       1 UNK        -0.1200 
      3 C3          1.5455    1.0659   -0.2039 C.3       1 UNK         0.2200 
      4 O4          2.3407    2.2166    0.0351 O.3       1 UNK        -0.3300 
      5 C5          2.4825   -0.0932    0.1643 C.3       1 UNK        -0.1200 
      6 C6          3.6499    1.9616    0.0899 C.2       1 UNK         0.5100 
      7 C7          3.8791    0.4684   -0.0595 C.3       1 UNK        -0.1200 
      8 O8          4.5524    2.7813    0.2436 O.2       1 UNK        -0.4300 
      9 H9         -1.6119    0.0415    0.9197 H         1 UNK         0.0600 
     10 H10        -0.9690   -0.0883   -0.7149 H         1 UNK         0.0600 
     11 H11        -0.2329   -1.0042    0.6000 H         1 UNK         0.0600 
     12 H12         0.4883    1.1556    1.6871 H         1 UNK         0.0600 
     13 H13        -0.2719    2.0540    0.4000 H         1 UNK         0.0600 
     14 H14         1.3147    1.0355   -1.2696 H         1 UNK         0.0300 
     15 H15         2.2887   -0.9824   -0.4360 H         1 UNK         0.0600 
     16 H16         2.3676   -0.3685    1.2139 H         1 UNK         0.0600 
     17 H17         4.2388    0.2574   -1.0667 H         1 UNK         0.0600 
     18 H18         4.6014    0.0916    0.6649 H         1 UNK         0.0600 
@<TRIPOS>BOND
     1    1    2 1    
     2    1    9 1    
     3    1   10 1    
     4    1   11 1    
     5    2    3 1    
     6    2   12 1    
     7    2   13 1    
     8    3    4 1    
     9    3    5 1    
    10    3   14 1    
    11    4    6 1    
    12    5    7 1    
    13    5   15 1    
    14    5   16 1    
    15    6    7 1    
    16    6    8 2    
    17    7   17 1    
    18    7   18 1    
@<TRIPOS>SUBSTRUCTURE
     1 UNK         1 GROUP             0       ****    0 ROOT    
