@<TRIPOS>MOLECULE
title: molecule 1
28   29    1
SMALL
USER_CHARGES


@<TRIPOS>ATOM
      1 C1          3.8880   -2.2086   -0.1150 C.ar      1 UNK         0.0075 
      2 C2          2.6695   -1.5126    0.0080 C.ar      1 UNK         0.0075 
      3 N3          4.7990   -2.1636    0.8877 N.pl3     1 UNK         0.6325 
      4 C4          2.3953   -0.7781    1.1798 C.ar      1 UNK        -0.1150 
      5 S5          1.4761   -1.5896   -1.3194 S.3       1 UNK         1.2918 
      6 C6          4.5709   -1.4592    2.0262 C.ar      1 UNK         0.0075 
      7 C7          6.0718   -2.8915    0.7353 C.3       1 UNK         0.1175 
      8 C8          3.3640   -0.7504    2.2028 C.ar      1 UNK        -0.2051 
      9 O9          2.3129   -1.7089   -2.5237 O.co2     1 UNK        -0.7664 
     10 O10         0.6982   -2.7924   -0.9867 O.co2     1 UNK        -0.7664 
     11 O11         0.7388   -0.3219   -1.2043 O.co2     1 UNK        -0.7664 
     12 C12         7.1443   -2.0036    0.1307 C.ar      1 UNK        -0.1150 
     13 C13         8.0393   -1.3023    0.9664 C.ar      1 UNK        -0.1150 
     14 C14         7.2496   -1.8732   -1.2706 C.ar      1 UNK        -0.1150 
     15 C15         9.0306   -0.4744    0.4045 C.ar      1 UNK        -0.1150 
     16 C16         8.2410   -1.0448   -1.8314 C.ar      1 UNK        -0.1150 
     17 C17         9.1314   -0.3452   -0.9942 C.ar      1 UNK        -0.1150 
     18 H18         4.1512   -2.7903   -0.9866 H         1 UNK         0.1150 
     19 H19         1.4619   -0.2458    1.2931 H         1 UNK         0.1150 
     20 H20         5.3557   -1.4749    2.7687 H         1 UNK         0.1150 
     21 H21         6.3740   -3.2583    1.7177 H         1 UNK         0.0600 
     22 H22         5.8947   -3.7672    0.1086 H         1 UNK         0.0600 
     23 H23         3.1834   -0.1924    3.1102 H         1 UNK         0.2051 
     24 H24         7.9693   -1.3948    2.0405 H         1 UNK         0.1150 
     25 H25         6.5703   -2.4053   -1.9207 H         1 UNK         0.1150 
     26 H26         9.7140    0.0619    1.0464 H         1 UNK         0.1150 
     27 H27         8.3184   -0.9458   -2.9042 H         1 UNK         0.1150 
     28 H28         9.8916    0.2900   -1.4248 H         1 UNK         0.1150 
@<TRIPOS>BOND
     1    1    2 ar   
     2    1    3 ar   
     3    1   18 1    
     4    2    4 ar   
     5    2    5 1    
     6    3    6 ar   
     7    3    7 1    
     8    4    8 ar   
     9    4   19 1    
    10    5    9 2    
    11    5   10 2    
    12    5   11 1    
    13    6    8 ar   
    14    6   20 1    
    15    7   12 1    
    16    7   21 1    
    17    7   22 1    
    18    8   23 1    
    19   12   13 ar   
    20   12   14 ar   
    21   13   15 ar   
    22   13   24 1    
    23   14   16 ar   
    24   14   25 1    
    25   15   17 ar   
    26   15   26 1    
    27   16   17 ar   
    28   16   27 1    
    29   17   28 1    
@<TRIPOS>SUBSTRUCTURE
     1 UNK         1 GROUP             0       ****    0 ROOT    
