@<TRIPOS>MOLECULE
title: molecule 1
13   13    1
SMALL
USER_CHARGES


@<TRIPOS>ATOM
      1 O1          0.1151   -2.6790   -1.7782 O.3       1 UNK        -0.1900 
      2 C2         -0.0679   -2.0417   -0.5907 C.cat     1 UNK         0.2130 
      3 C3          0.5154   -1.7152   -2.6579 C.2       1 UNK         0.0080 
      4 N4         -0.4931   -2.7271    0.5902 N.pl3     1 UNK         0.6500 
      5 C5          0.2008   -0.7049   -0.6788 C.2       1 UNK        -0.1540 
      6 C6          0.5823   -0.4956   -2.0341 C.2       1 UNK        -0.1540 
      7 C7          0.7929   -2.0977   -4.0332 C.2       1 UNK         0.5650 
      8 O8         -0.6942   -3.9334    0.5065 O.co2     1 UNK        -0.3700 
      9 O9         -0.6349   -2.0794    1.6225 O.co2     1 UNK        -0.3700 
     10 O10         1.1575   -1.2903   -4.8860 O.2       1 UNK        -0.4500 
     11 H11         0.1335    0.0226    0.1169 H         1 UNK         0.1260 
     12 H12         0.8716    0.4356   -2.4992 H         1 UNK         0.1260 
     13 H13         0.6526   -3.1567   -4.2503 H         1 UNK         0.0000 
@<TRIPOS>BOND
     1    1    2 1    
     2    1    3 1    
     3    2    4 ar   
     4    2    5 2    
     5    3    6 2    
     6    3    7 1    
     7    4    8 1    
     8    4    9 2    
     9    5    6 1    
    10    5   11 1    
    11    6   12 1    
    12    7   10 2    
    13    7   13 1    
@<TRIPOS>SUBSTRUCTURE
     1 UNK         1 GROUP             0       ****    0 ROOT    
