@<TRIPOS>MOLECULE
title: molecule 1
22   22    1
SMALL
USER_CHARGES


@<TRIPOS>ATOM
      1 C1          2.9994    2.0368   -0.0704 C.ar      1 UNK        -0.1150 
      2 C2          2.4640    0.8451    0.4613 C.ar      1 UNK        -0.1150 
      3 C3          4.3862    2.1556   -0.2859 C.ar      1 UNK        -0.1150 
      4 C4          3.3249   -0.2272    0.7753 C.ar      1 UNK        -0.1150 
      5 C5          0.9699    0.7156    0.6896 C.3       1 UNK        -0.0050 
      6 C6          5.2462    1.0829    0.0272 C.ar      1 UNK        -0.1150 
      7 C7          4.7117   -0.1083    0.5598 C.ar      1 UNK        -0.1150 
      8 C8          0.2440    0.1523   -0.5391 C.3       1 UNK         0.1450 
      9 C9          6.7380    1.2118   -0.2017 C.3       1 UNK        -0.0650 
     10 O10        -1.1388    0.0527   -0.2737 O.3       1 UNK        -0.6830 
     11 H11         2.3480    2.8630   -0.3154 H         1 UNK         0.1150 
     12 H12         4.7872    3.0728   -0.6922 H         1 UNK         0.1150 
     13 H13         2.9240   -1.1444    1.1816 H         1 UNK         0.1150 
     14 H14         0.7962    0.0732    1.5540 H         1 UNK         0.0600 
     15 H15         0.5631    1.6942    0.9485 H         1 UNK         0.0600 
     16 H16         5.3632   -0.9344    0.8048 H         1 UNK         0.1150 
     17 H17         0.3950    0.7978   -1.4051 H         1 UNK         0.0600 
     18 H18         0.6297   -0.8351   -0.7951 H         1 UNK         0.0600 
     19 H19         7.1824    0.2417   -0.4260 H         1 UNK         0.0600 
     20 H20         6.9469    1.8796   -1.0380 H         1 UNK         0.0600 
     21 H21         7.2213    1.6140    0.6888 H         1 UNK         0.0600 
     22 H22        -1.5689   -0.2954   -1.0400 H         1 UNK         0.4180 
@<TRIPOS>BOND
     1    1    2 ar   
     2    1    3 ar   
     3    1   11 1    
     4    2    4 ar   
     5    2    5 1    
     6    3    6 ar   
     7    3   12 1    
     8    4    7 ar   
     9    4   13 1    
    10    5    8 1    
    11    5   14 1    
    12    5   15 1    
    13    6    9 1    
    14    6    7 ar   
    15    7   16 1    
    16    8   10 1    
    17    8   17 1    
    18    8   18 1    
    19    9   19 1    
    20    9   20 1    
    21    9   21 1    
    22   10   22 1    
@<TRIPOS>SUBSTRUCTURE
     1 UNK         1 GROUP             0       ****    0 ROOT    
