@<TRIPOS>MOLECULE
title: molecule 1
27   28    1
SMALL
USER_CHARGES


@<TRIPOS>ATOM
      1 O1          5.0201   -2.5732   -2.1757 O.3       1 UNK        -0.5850 
      2 C2          6.1832   -2.5472   -1.4582 C.ar      1 UNK         0.1500 
      3 C3          7.2539   -1.7625   -1.9373 C.ar      1 UNK         0.1800 
      4 C4          6.3235   -3.3038   -0.2644 C.ar      1 UNK        -0.1150 
      5 C5          8.4749   -1.7392   -1.2441 C.ar      1 UNK        -0.1150 
      6 Cl6         7.0891   -0.8260   -3.3807 Cl        1 UNK        -0.1800 
      7 C7          7.5766   -3.2982    0.4098 C.ar      1 UNK         0.1800 
      8 C8          5.1453   -4.1347    0.2612 C.3       1 UNK         0.1100 
      9 C9          8.6412   -2.5087   -0.0806 C.ar      1 UNK         0.1800 
     10 Cl10        7.8464   -4.2606    1.8262 Cl        1 UNK        -0.1800 
     11 C11         3.8732   -3.3321    0.5609 C.ar      1 UNK        -0.1150 
     12 Cl12       10.1684   -2.4722    0.7282 Cl        1 UNK        -0.1800 
     13 C13         2.7250   -3.4755   -0.2609 C.ar      1 UNK         0.1500 
     14 C14         3.8175   -2.4522    1.6741 C.ar      1 UNK         0.1800 
     15 C15         1.5508   -2.7452    0.0184 C.ar      1 UNK         0.1800 
     16 O16         2.7385   -4.3116   -1.3424 O.3       1 UNK        -0.5850 
     17 C17         2.6370   -1.7239    1.9446 C.ar      1 UNK         0.1800 
     18 Cl18        5.1800   -2.2584    2.7238 Cl        1 UNK        -0.1800 
     19 C19         1.5101   -1.8713    1.1176 C.ar      1 UNK        -0.1150 
     20 Cl20        0.1527   -2.9108   -0.9836 Cl        1 UNK        -0.1800 
     21 Cl21        2.5471   -0.6438    3.2909 Cl        1 UNK        -0.1800 
     22 H22         4.3664   -3.1591   -1.8199 H         1 UNK         0.4350 
     23 H23         9.2926   -1.1382   -1.6143 H         1 UNK         0.1150 
     24 H24         4.9539   -4.9208   -0.4682 H         1 UNK         0.0600 
     25 H25         5.3961   -4.6771    1.1699 H         1 UNK         0.0600 
     26 H26         1.9059   -4.3406   -1.7911 H         1 UNK         0.4350 
     27 H27         0.6099   -1.3127    1.3287 H         1 UNK         0.1150 
@<TRIPOS>BOND
     1    1    2 1    
     2    1   22 1    
     3    2    3 ar   
     4    2    4 ar   
     5    3    5 ar   
     6    3    6 1    
     7    4    7 ar   
     8    4    8 1    
     9    5    9 ar   
    10    5   23 1    
    11    7    9 ar   
    12    7   10 1    
    13    8   11 1    
    14    8   24 1    
    15    8   25 1    
    16    9   12 1    
    17   11   13 ar   
    18   11   14 ar   
    19   13   15 ar   
    20   13   16 1    
    21   14   17 ar   
    22   14   18 1    
    23   15   19 ar   
    24   15   20 1    
    25   16   26 1    
    26   17   19 ar   
    27   17   21 1    
    28   19   27 1    
@<TRIPOS>SUBSTRUCTURE
     1 UNK         1 GROUP             0       ****    0 ROOT    
