@<TRIPOS>MOLECULE
title: molecule 1
23   23    1
SMALL
USER_CHARGES


@<TRIPOS>ATOM
      1 C1          4.3962    2.4271    0.1041 C.3       1 UNK        -0.0650 
      2 C2          3.0707    1.6733    0.1152 C.ar      1 UNK        -0.1150 
      3 C3          1.8414    2.3842    0.1017 C.ar      1 UNK        -0.1150 
      4 C4          3.0567    0.2578    0.1452 C.ar      1 UNK         0.1500 
      5 C5          1.8382    3.9094    0.0928 C.3       1 UNK        -0.0650 
      6 C6          0.6165    1.6705    0.0904 C.ar      1 UNK         0.1500 
      7 O7          4.2155   -0.4642    0.1814 O.3       1 UNK        -0.5850 
      8 C8          1.8357   -0.4397    0.1423 C.ar      1 UNK        -0.1150 
      9 O9         -0.5758    2.3391    0.0566 O.3       1 UNK        -0.5850 
     10 C10         0.6141    0.2583    0.1108 C.ar      1 UNK        -0.1150 
     11 C11        -0.6914   -0.5171    0.1015 C.3       1 UNK        -0.0650 
     12 H12         5.2345    1.7990   -0.1946 H         1 UNK         0.0600 
     13 H13         4.3663    3.2589   -0.5997 H         1 UNK         0.0600 
     14 H14         4.6092    2.8244    1.0967 H         1 UNK         0.0600 
     15 H15         0.8736    4.3298    0.3752 H         1 UNK         0.0600 
     16 H16         2.5685    4.3047    0.7987 H         1 UNK         0.0600 
     17 H17         2.0860    4.2783   -0.9025 H         1 UNK         0.0600 
     18 H18         4.9886    0.0781    0.1955 H         1 UNK         0.4350 
     19 H19         1.8412   -1.5199    0.1630 H         1 UNK         0.1150 
     20 H20        -1.3220    1.7601    0.0504 H         1 UNK         0.4350 
     21 H21        -0.5160   -1.5931    0.1219 H         1 UNK         0.0600 
     22 H22        -1.2936   -0.2583    0.9728 H         1 UNK         0.0600 
     23 H23        -1.2640   -0.2871   -0.7974 H         1 UNK         0.0600 
@<TRIPOS>BOND
     1    1    2 1    
     2    1   12 1    
     3    1   13 1    
     4    1   14 1    
     5    2    3 ar   
     6    2    4 ar   
     7    3    5 1    
     8    3    6 ar   
     9    4    7 1    
    10    4    8 ar   
    11    5   15 1    
    12    5   16 1    
    13    5   17 1    
    14    6    9 1    
    15    6   10 ar   
    16    7   18 1    
    17    8   10 ar   
    18    8   19 1    
    19    9   20 1    
    20   10   11 1    
    21   11   21 1    
    22   11   22 1    
    23   11   23 1    
@<TRIPOS>SUBSTRUCTURE
     1 UNK         1 GROUP             0       ****    0 ROOT    
