@<TRIPOS>MOLECULE
title: molecule 1
23   23    1
SMALL
USER_CHARGES


@<TRIPOS>ATOM
      1 C1          5.1178   -3.7637    0.0809 C.ar      1 UNK        -0.1150 
      2 C2          6.6125   -3.8115    0.0623 C.2       1 UNK         0.5650 
      3 C3          4.3897   -4.9794   -0.0046 C.ar      1 UNK         0.1500 
      4 C4          4.4102   -2.5321    0.1820 C.ar      1 UNK         0.0850 
      5 O5          7.3680   -2.8426    0.1288 O.2       1 UNK        -0.4500 
      6 O6          5.0162   -6.1919   -0.1034 O.3       1 UNK        -0.5850 
      7 C7          2.9836   -4.9688    0.0103 C.ar      1 UNK        -0.1150 
      8 C8          2.9906   -2.5502    0.1948 C.ar      1 UNK        -0.1150 
      9 O9          5.1323   -1.3559    0.2646 O.3       1 UNK        -0.2850 
     10 C10         2.2688   -3.7640    0.1094 C.ar      1 UNK         0.0850 
     11 C11         4.4390   -0.1203    0.3658 C.3       1 UNK         0.1100 
     12 O12         0.8929   -3.8554    0.1162 O.3       1 UNK        -0.2850 
     13 C13         0.1382   -2.6565    0.2152 C.3       1 UNK         0.1100 
     14 H14         7.0313   -4.8141   -0.0184 H         1 UNK         0.0000 
     15 H15         4.4154   -6.9199   -0.1530 H         1 UNK         0.4350 
     16 H16         2.4385   -5.8993   -0.0553 H         1 UNK         0.1150 
     17 H17         2.4454   -1.6242    0.2710 H         1 UNK         0.1150 
     18 H18         3.8288   -0.0770    1.2689 H         1 UNK         0.0300 
     19 H19         3.8110    0.0586   -0.5079 H         1 UNK         0.0300 
     20 H20         5.1632    0.6923    0.4206 H         1 UNK         0.0300 
     21 H21        -0.9243   -2.8991    0.2073 H         1 UNK         0.0300 
     22 H22         0.3483   -2.1285    1.1464 H         1 UNK         0.0300 
     23 H23         0.3305   -1.9930   -0.6291 H         1 UNK         0.0300 
@<TRIPOS>BOND
     1    1    2 1    
     2    1    3 ar   
     3    1    4 ar   
     4    2    5 2    
     5    2   14 1    
     6    3    6 1    
     7    3    7 ar   
     8    4    8 ar   
     9    4    9 1    
    10    6   15 1    
    11    7   10 ar   
    12    7   16 1    
    13    8   10 ar   
    14    8   17 1    
    15    9   11 1    
    16   10   12 1    
    17   11   18 1    
    18   11   19 1    
    19   11   20 1    
    20   12   13 1    
    21   13   21 1    
    22   13   22 1    
    23   13   23 1    
@<TRIPOS>SUBSTRUCTURE
     1 UNK         1 GROUP             0       ****    0 ROOT    
