@<TRIPOS>MOLECULE
title: molecule 1
15   14    1
SMALL
USER_CHARGES


@<TRIPOS>ATOM
      1 C1         -0.0935   -0.6059    0.0948 C.3       1 UNK        -0.1800 
      2 C2          1.1824    0.2435    0.1047 C.3       1 UNK        -0.1200 
      3 C3          2.4592   -0.6094    0.0930 C.3       1 UNK        -0.1200 
      4 C4          3.7353    0.2425    0.1030 C.3       1 UNK         0.1450 
      5 O5          4.8698   -0.5969    0.0915 O.3       1 UNK        -0.6830 
      6 H6         -0.9814    0.0267    0.1035 H         1 UNK         0.0600 
      7 H7         -0.1416   -1.2342   -0.7950 H         1 UNK         0.0600 
      8 H8         -0.1404   -1.2566    0.9684 H         1 UNK         0.0600 
      9 H9          1.1779    0.9075   -0.7604 H         1 UNK         0.0600 
     10 H10         1.1791    0.8853    0.9865 H         1 UNK         0.0600 
     11 H11         2.4594   -1.2736    0.9585 H         1 UNK         0.0600 
     12 H12         2.4582   -1.2514   -0.7890 H         1 UNK         0.0600 
     13 H13         3.7683    0.8975   -0.7683 H         1 UNK         0.0600 
     14 H14         3.7695    0.8751    0.9906 H         1 UNK         0.0600 
     15 H15         5.6453   -0.0566    0.0979 H         1 UNK         0.4180 
@<TRIPOS>BOND
     1    1    2 1    
     2    1    6 1    
     3    1    7 1    
     4    1    8 1    
     5    2    3 1    
     6    2    9 1    
     7    2   10 1    
     8    3    4 1    
     9    3   11 1    
    10    3   12 1    
    11    4    5 1    
    12    4   13 1    
    13    4   14 1    
    14    5   15 1    
@<TRIPOS>SUBSTRUCTURE
     1 UNK         1 GROUP             0       ****    0 ROOT    
