@<TRIPOS>MOLECULE
title: molecule 1
17   17    1
SMALL
USER_CHARGES


@<TRIPOS>ATOM
      1 O1          1.5532   -0.5009    0.3005 O.3       1 UNK        -0.5850 
      2 C2          2.1855    0.7046    0.1726 C.ar      1 UNK         0.1500 
      3 C3          1.4669    1.9083   -0.0600 C.ar      1 UNK        -0.1150 
      4 C4          3.5898    0.7342    0.2974 C.ar      1 UNK        -0.1150 
      5 C5         -0.0294    1.9171   -0.2274 C.2       1 UNK         0.6150 
      6 C6          2.1852    3.1224   -0.1719 C.ar      1 UNK        -0.1150 
      7 C7          4.2901    1.9495    0.1900 C.ar      1 UNK        -0.1150 
      8 N8         -0.6754    2.9132    0.3850 N.am      1 UNK        -0.7600 
      9 O9         -0.6197    1.0478   -0.8653 O.2       1 UNK        -0.5000 
     10 C10         3.5870    3.1443   -0.0456 C.ar      1 UNK         0.1800 
     11 Cl11        4.4423    4.6362   -0.1839 Cl        1 UNK        -0.1800 
     12 H12         2.1459   -1.2222    0.4447 H         1 UNK         0.4350 
     13 H13         4.1379   -0.1788    0.4793 H         1 UNK         0.1150 
     14 H14         1.6652    4.0495   -0.3656 H         1 UNK         0.1150 
     15 H15         5.3658    1.9632    0.2870 H         1 UNK         0.1150 
     16 H16        -1.6812    2.9665    0.3194 H         1 UNK         0.3800 
     17 H17        -0.1596    3.5980    0.9173 H         1 UNK         0.3800 
@<TRIPOS>BOND
     1    1    2 1    
     2    1   12 1    
     3    2    3 ar   
     4    2    4 ar   
     5    3    5 1    
     6    3    6 ar   
     7    4    7 ar   
     8    4   13 1    
     9    5    8 am   BACKBONE|DICT|INTERRES
    10    5    9 2    
    11    6   10 ar   
    12    6   14 1    
    13    7   10 ar   
    14    7   15 1    
    15    8   16 1    
    16    8   17 1    
    17   10   11 1    
@<TRIPOS>SUBSTRUCTURE
     1 UNK         1 GROUP             0       ****    0 ROOT    
