@<TRIPOS>MOLECULE
title: molecule 1
38   38    1
SMALL
USER_CHARGES


@<TRIPOS>ATOM
      1 N1          0.2831   -3.9043   -0.4470 N.3       1 UNK        -0.9000 
      2 C2          0.8810   -2.8026    0.2814 C.3       1 UNK         0.0600 
      3 C3          2.3170   -2.5671   -0.2054 C.3       1 UNK        -0.1200 
      4 C4          2.9957   -1.4067    0.5420 C.3       1 UNK         0.0900 
      5 N5          4.3133   -1.0293    0.0326 N.3       1 UNK        -0.6300 
      6 C6          4.7798    0.2086    0.6579 C.3       1 UNK         0.0900 
      7 C7          5.3241   -2.0655    0.2625 C.3       1 UNK         0.0900 
      8 C8          6.1582    0.6327    0.1184 C.3       1 UNK         0.0900 
      9 C9          6.7067   -1.6416   -0.2697 C.3       1 UNK         0.0900 
     10 N10         7.1698   -0.3981    0.3529 N.3       1 UNK        -0.6300 
     11 C11         8.4755    0.0288   -0.1480 C.3       1 UNK         0.0900 
     12 C12         9.6518   -0.8820    0.2427 C.3       1 UNK        -0.1200 
     13 C13        11.0023   -0.2908   -0.1829 C.3       1 UNK         0.0600 
     14 N14        12.0791   -1.1819    0.2022 N.3       1 UNK        -0.9000 
     15 H15        -0.6751   -4.0293   -0.1523 H         1 UNK         0.3600 
     16 H16         0.2551   -3.6875   -1.4332 H         1 UNK         0.3600 
     17 H17         0.8712   -3.0333    1.3472 H         1 UNK         0.0600 
     18 H18         0.2757   -1.9076    0.1345 H         1 UNK         0.0600 
     19 H19         2.3099   -2.3514   -1.2748 H         1 UNK         0.0600 
     20 H20         2.8901   -3.4852   -0.0751 H         1 UNK         0.0600 
     21 H21         3.0641   -1.6463    1.6043 H         1 UNK         0.0600 
     22 H22         2.3357   -0.5409    0.4728 H         1 UNK         0.0600 
     23 H23         4.8334    0.0851    1.7409 H         1 UNK         0.0600 
     24 H24         4.0629    1.0088    0.4710 H         1 UNK         0.0600 
     25 H25         5.0349   -2.9913   -0.2333 H         1 UNK         0.0600 
     26 H26         5.3955   -2.2901    1.3280 H         1 UNK         0.0600 
     27 H27         6.4596    1.5619    0.6032 H         1 UNK         0.0600 
     28 H28         6.0824    0.8485   -0.9487 H         1 UNK         0.0600 
     29 H29         6.6610   -1.5241   -1.3536 H         1 UNK         0.0600 
     30 H30         7.4121   -2.4478   -0.0722 H         1 UNK         0.0600 
     31 H31         8.4394    0.1341   -1.2334 H         1 UNK         0.0600 
     32 H32         8.6880    1.0252    0.2420 H         1 UNK         0.0600 
     33 H33         9.6443   -1.0366    1.3226 H         1 UNK         0.0600 
     34 H34         9.5354   -1.8645   -0.2150 H         1 UNK         0.0600 
     35 H35        11.0319   -0.1424   -1.2628 H         1 UNK         0.0600 
     36 H36        11.1591    0.6813    0.2856 H         1 UNK         0.0600 
     37 H37        12.9683   -0.7700   -0.0430 H         1 UNK         0.3600 
     38 H38        12.0833   -1.3000    1.2055 H         1 UNK         0.3600 
@<TRIPOS>BOND
     1    1    2 1    
     2    1   15 1    
     3    1   16 1    
     4    2    3 1    
     5    2   17 1    
     6    2   18 1    
     7    3    4 1    
     8    3   19 1    
     9    3   20 1    
    10    4    5 1    
    11    4   21 1    
    12    4   22 1    
    13    5    6 1    
    14    5    7 1    
    15    6    8 1    
    16    6   23 1    
    17    6   24 1    
    18    7    9 1    
    19    7   25 1    
    20    7   26 1    
    21    8   10 1    
    22    8   27 1    
    23    8   28 1    
    24    9   10 1    
    25    9   29 1    
    26    9   30 1    
    27   10   11 1    
    28   11   12 1    
    29   11   31 1    
    30   11   32 1    
    31   12   13 1    
    32   12   33 1    
    33   12   34 1    
    34   13   14 1    
    35   13   35 1    
    36   13   36 1    
    37   14   37 1    
    38   14   38 1    
@<TRIPOS>SUBSTRUCTURE
     1 UNK         1 GROUP             0       ****    0 ROOT    
