@<TRIPOS>MOLECULE
title: molecule 1
18   18    1
SMALL
USER_CHARGES


@<TRIPOS>ATOM
      1 C1          3.7512    0.6827    0.0973 C.ar      1 UNK        -0.1150 
      2 C2          2.3473    0.5835    0.1072 C.ar      1 UNK         0.2200 
      3 C3          4.3760    1.9392    0.0881 C.ar      1 UNK         0.2000 
      4 C4          1.5397    1.7581    0.1033 C.ar      1 UNK         0.0850 
      5 F5          1.8142   -0.6611    0.1265 F         1 UNK        -0.2200 
      6 C6          3.5937    3.1046    0.0830 C.ar      1 UNK        -0.1150 
      7 Br7         6.2747    2.0631    0.0803 Br        1 UNK        -0.2000 
      8 C8          2.1836    3.0261    0.0830 C.ar      1 UNK         0.0900 
      9 O9          0.1569    1.7624    0.1391 O.3       1 UNK        -0.2850 
     10 N10         1.4094    4.2806    0.0668 N.pl3     1 UNK         0.6500 
     11 C11        -0.5660    0.5420    0.1224 C.3       1 UNK         0.1100 
     12 O12         1.8268    5.2132    0.7456 O.co2     1 UNK        -0.3700 
     13 O13         0.4101    4.3451   -0.6414 O.co2     1 UNK        -0.3700 
     14 H14         4.3516   -0.2152    0.1014 H         1 UNK         0.1150 
     15 H15         4.0831    4.0678    0.0703 H         1 UNK         0.1150 
     16 H16        -1.6332    0.7630    0.1235 H         1 UNK         0.0300 
     17 H17        -0.3560   -0.0369   -0.7777 H         1 UNK         0.0300 
     18 H18        -0.3589   -0.0584    1.0089 H         1 UNK         0.0300 
@<TRIPOS>BOND
     1    1    2 ar   
     2    1    3 ar   
     3    1   14 1    
     4    2    4 ar   
     5    2    5 1    
     6    3    6 ar   
     7    3    7 1    
     8    4    8 ar   
     9    4    9 1    
    10    6    8 ar   
    11    6   15 1    
    12    8   10 1    
    13    9   11 1    
    14   10   12 2    
    15   10   13 1    
    16   11   16 1    
    17   11   17 1    
    18   11   18 1    
@<TRIPOS>SUBSTRUCTURE
     1 UNK         1 GROUP             0       ****    0 ROOT    
