@<TRIPOS>MOLECULE
title: molecule 1
34   33    1
SMALL
USER_CHARGES


@<TRIPOS>ATOM
      1 C1         -0.4358    0.8051   -0.2610 C.2       1 UNK        -0.1150 
      2 C2          0.5589    0.1933    0.4019 C.2       1 UNK        -0.1150 
      3 C3         -1.7196    1.2880    0.3781 C.3       1 UNK         0.1450 
      4 C4          1.8418   -0.2961   -0.2377 C.3       1 UNK        -0.1200 
      5 O5         -1.9487    2.6420    0.0557 O.3       1 UNK        -0.6830 
      6 C6          3.0815    0.3567    0.3894 C.3       1 UNK        -0.1200 
      7 C7          4.3904   -0.1357   -0.2450 C.3       1 UNK        -0.1200 
      8 C8          5.6314    0.5171    0.3812 C.3       1 UNK        -0.1200 
      9 C9          6.9403    0.0248   -0.2533 C.3       1 UNK        -0.1200 
     10 C10         8.1813    0.6776    0.3729 C.3       1 UNK        -0.1200 
     11 C11         9.4902    0.1854   -0.2614 C.3       1 UNK        -0.1200 
     12 C12        10.7286    0.8371    0.3637 C.3       1 UNK        -0.1800 
     13 H13        -0.3442    0.9706   -1.3249 H         1 UNK         0.1150 
     14 H14         0.4643    0.0242    1.4649 H         1 UNK         0.1150 
     15 H15        -2.5513    0.6874    0.0093 H         1 UNK         0.0600 
     16 H16        -1.6803    1.1703    1.4616 H         1 UNK         0.0600 
     17 H17         1.8902   -1.3791   -0.1204 H         1 UNK         0.0600 
     18 H18         1.8164   -0.0961   -1.3098 H         1 UNK         0.0600 
     19 H19        -2.7630    2.9130    0.4515 H         1 UNK         0.4180 
     20 H20         3.0123    1.4402    0.2837 H         1 UNK         0.0600 
     21 H21         3.0982    0.1513    1.4606 H         1 UNK         0.0600 
     22 H22         4.4587   -1.2192   -0.1401 H         1 UNK         0.0600 
     23 H23         4.3739    0.0703   -1.3160 H         1 UNK         0.0600 
     24 H24         5.5628    1.6007    0.2762 H         1 UNK         0.0600 
     25 H25         5.6478    0.3112    1.4522 H         1 UNK         0.0600 
     26 H26         7.0088   -1.0587   -0.1484 H         1 UNK         0.0600 
     27 H27         6.9238    0.2308   -1.3243 H         1 UNK         0.0600 
     28 H28         8.1130    1.7612    0.2680 H         1 UNK         0.0600 
     29 H29         8.1979    0.4717    1.4439 H         1 UNK         0.0600 
     30 H30         9.5633   -0.8976   -0.1566 H         1 UNK         0.0600 
     31 H31         9.4784    0.3916   -1.3323 H         1 UNK         0.0600 
     32 H32        11.6405    0.4684   -0.1065 H         1 UNK         0.0600 
     33 H33        10.7070    1.9205    0.2431 H         1 UNK         0.0600 
     34 H34        10.7928    0.6189    1.4300 H         1 UNK         0.0600 
@<TRIPOS>BOND
     1    1    2 2    
     2    1    3 1    
     3    1   13 1    
     4    2    4 1    
     5    2   14 1    
     6    3    5 1    
     7    3   15 1    
     8    3   16 1    
     9    4    6 1    
    10    4   17 1    
    11    4   18 1    
    12    5   19 1    
    13    6    7 1    
    14    6   20 1    
    15    6   21 1    
    16    7    8 1    
    17    7   22 1    
    18    7   23 1    
    19    8    9 1    
    20    8   24 1    
    21    8   25 1    
    22    9   10 1    
    23    9   26 1    
    24    9   27 1    
    25   10   11 1    
    26   10   28 1    
    27   10   29 1    
    28   11   12 1    
    29   11   30 1    
    30   11   31 1    
    31   12   32 1    
    32   12   33 1    
    33   12   34 1    
@<TRIPOS>SUBSTRUCTURE
     1 UNK         1 GROUP             0       ****    0 ROOT    
