@<TRIPOS>MOLECULE
title: molecule 1
14   14    1
SMALL
USER_CHARGES


@<TRIPOS>ATOM
      1 C1          2.6250    0.1385    0.1010 C.1       1 UNK         0.3950 
      2 C2          1.1715    0.1330    0.1008 C.ar      1 UNK         0.0350 
      3 N3          3.7820    0.1430    0.1011 N.1       1 UNK        -0.4300 
      4 C4          0.4691   -1.0901    0.1074 C.ar      1 UNK        -0.1150 
      5 C5          0.4598    1.3509    0.0941 C.ar      1 UNK        -0.1150 
      6 C6         -0.9398   -1.0945    0.1072 C.ar      1 UNK        -0.1150 
      7 C7         -0.9492    1.3453    0.0940 C.ar      1 UNK        -0.1150 
      8 C8         -1.6495    0.1224    0.1005 C.ar      1 UNK         0.1500 
      9 O9         -3.0138    0.1138    0.1004 O.3       1 UNK        -0.5850 
     10 H10         1.0046   -2.0288    0.1125 H         1 UNK         0.1150 
     11 H11         0.9887    2.2933    0.0891 H         1 UNK         0.1150 
     12 H12        -1.4746   -2.0331    0.1122 H         1 UNK         0.1150 
     13 H13        -1.4875    2.2818    0.0889 H         1 UNK         0.1150 
     14 H14        -3.3924    0.9795    0.0957 H         1 UNK         0.4350 
@<TRIPOS>BOND
     1    1    2 1    
     2    1    3 3    
     3    2    4 ar   
     4    2    5 ar   
     5    4    6 ar   
     6    4   10 1    
     7    5    7 ar   
     8    5   11 1    
     9    6    8 ar   
    10    6   12 1    
    11    7    8 ar   
    12    7   13 1    
    13    8    9 1    
    14    9   14 1    
@<TRIPOS>SUBSTRUCTURE
     1 UNK         1 GROUP             0       ****    0 ROOT    
