@<TRIPOS>MOLECULE
title: molecule 1
14   14    1
SMALL
USER_CHARGES


@<TRIPOS>ATOM
      1 N1         -0.0068   -2.1598    0.1178 N.pl3     1 UNK        -0.9000 
      2 C2          1.3883   -2.1670    0.1073 C.ar      1 UNK         0.1800 
      3 C3          2.1018   -0.9496    0.0935 C.ar      1 UNK         0.1300 
      4 C4          2.0893   -3.3917    0.1106 C.ar      1 UNK         0.1300 
      5 F5          1.4363    0.2311    0.0903 F         1 UNK        -0.1300 
      6 C6          3.5109   -0.9580    0.0830 C.ar      1 UNK         0.1300 
      7 C7          3.4984   -3.3979    0.1001 C.ar      1 UNK         0.1300 
      8 F8          1.4117   -4.5655    0.1239 F         1 UNK        -0.1300 
      9 F9          4.1947    0.2111    0.0697 F         1 UNK        -0.1300 
     10 C10         4.2091   -2.1816    0.0863 C.ar      1 UNK         0.1300 
     11 F11         4.1701   -4.5741    0.1032 F         1 UNK        -0.1300 
     12 F12         5.5635   -2.1887    0.0762 F         1 UNK        -0.1300 
     13 H13        -0.5382   -3.0188    0.1276 H         1 UNK         0.3600 
     14 H14        -0.5294   -1.2952    0.1156 H         1 UNK         0.3600 
@<TRIPOS>BOND
     1    1    2 1    
     2    1   13 1    
     3    1   14 1    
     4    2    3 ar   
     5    2    4 ar   
     6    3    5 1    
     7    3    6 ar   
     8    4    7 ar   
     9    4    8 1    
    10    6    9 1    
    11    6   10 ar   
    12    7   10 ar   
    13    7   11 1    
    14   10   12 1    
@<TRIPOS>SUBSTRUCTURE
     1 UNK         1 GROUP             0       ****    0 ROOT    
