@<TRIPOS>MOLECULE
title: molecule 1
22   23    1
SMALL
USER_CHARGES


@<TRIPOS>ATOM
      1 O1         -2.7530   -0.8494    1.0335 O.co2     1 UNK        -0.3700 
      2 N2         -2.4570   -0.0867    0.1198 N.pl3     1 UNK         0.6500 
      3 O3         -3.2247    0.2572   -0.7722 O.co2     1 UNK        -0.3700 
      4 C4         -1.1057    0.4946    0.1122 C.ar      1 UNK         0.0900 
      5 C5          0.0687   -0.3081    0.0943 C.ar      1 UNK         0.0000 
      6 C6         -0.9878    1.8991    0.1241 C.ar      1 UNK        -0.1150 
      7 C7          1.3501    0.3163    0.1136 C.ar      1 UNK         0.0000 
      8 C8         -0.0056   -1.7223    0.0417 C.ar      1 UNK        -0.1150 
      9 C9          0.2748    2.5130    0.1398 C.ar      1 UNK        -0.1150 
     10 C10         1.4446    1.7321    0.1394 C.ar      1 UNK         0.1800 
     11 C11         2.5160   -0.4882    0.1013 C.ar      1 UNK        -0.1150 
     12 C12         1.1613   -2.5071    0.0274 C.ar      1 UNK        -0.1150 
     13 N13         2.6754    2.3926    0.1594 N.pl3     1 UNK        -0.9000 
     14 C14         2.4223   -1.8905    0.0607 C.ar      1 UNK        -0.1150 
     15 H15        -1.8760    2.5143    0.1318 H         1 UNK         0.1150 
     16 H16        -0.9547   -2.2346    0.0051 H         1 UNK         0.1150 
     17 H17         0.3398    3.5914    0.1554 H         1 UNK         0.1150 
     18 H18         3.5000   -0.0447    0.1191 H         1 UNK         0.1150 
     19 H19         1.0875   -3.5840   -0.0109 H         1 UNK         0.1150 
     20 H20         2.7341    3.4008    0.1546 H         1 UNK         0.3600 
     21 H21         3.5482    1.8855    0.1363 H         1 UNK         0.3600 
     22 H22         3.3190   -2.4924    0.0498 H         1 UNK         0.1150 
@<TRIPOS>BOND
     1    1    2 1    
     2    2    3 2    
     3    2    4 1    
     4    4    5 ar   
     5    4    6 ar   
     6    5    7 ar   
     7    5    8 ar   
     8    6    9 ar   
     9    6   15 1    
    10    7   10 ar   
    11    7   11 ar   
    12    8   12 ar   
    13    8   16 1    
    14    9   10 ar   
    15    9   17 1    
    16   10   13 1    
    17   11   14 ar   
    18   11   18 1    
    19   12   14 ar   
    20   12   19 1    
    21   13   20 1    
    22   13   21 1    
    23   14   22 1    
@<TRIPOS>SUBSTRUCTURE
     1 UNK         1 GROUP             0       ****    0 ROOT    
