@<TRIPOS>MOLECULE
title: molecule 1
22   22    1
SMALL
USER_CHARGES


@<TRIPOS>ATOM
      1 O1         -2.0552    0.1705    0.0957 O.3       1 UNK        -0.3300 
      2 C2         -1.0258   -0.7003    0.1067 C.2       1 UNK         0.6250 
      3 C3         -3.3897   -0.3100    0.0938 C.3       1 UNK         0.1900 
      4 O4         -1.1685   -1.9247    0.1155 O.2       1 UNK        -0.4300 
      5 C5          0.3053   -0.0274    0.1071 C.ar      1 UNK        -0.1150 
      6 C6         -4.3542    0.8784    0.0807 C.3       1 UNK        -0.1800 
      7 C7          1.4794   -0.8160    0.1181 C.ar      1 UNK        -0.1150 
      8 C8          0.4304    1.3837    0.0969 C.ar      1 UNK        -0.1150 
      9 C9          2.7512   -0.2103    0.1188 C.ar      1 UNK         0.1500 
     10 C10         1.7026    1.9881    0.0976 C.ar      1 UNK        -0.1150 
     11 O11         3.8733   -0.9864    0.1294 O.3       1 UNK        -0.5850 
     12 C12         2.8635    1.1929    0.1085 C.ar      1 UNK        -0.1150 
     13 H13        -3.5566   -0.9377   -0.7826 H         1 UNK         0.0300 
     14 H14        -3.5640   -0.9242    0.9783 H         1 UNK         0.0300 
     15 H15        -5.3894    0.5372    0.0790 H         1 UNK         0.0600 
     16 H16        -4.2114    1.5091    0.9585 H         1 UNK         0.0600 
     17 H17        -4.2040    1.4956   -0.8054 H         1 UNK         0.0600 
     18 H18         1.4146   -1.8948    0.1260 H         1 UNK         0.1150 
     19 H19        -0.4405    2.0229    0.0884 H         1 UNK         0.1150 
     20 H20         1.7874    3.0648    0.0897 H         1 UNK         0.1150 
     21 H21         4.6735   -0.4841    0.1289 H         1 UNK         0.4350 
     22 H22         3.8357    1.6636    0.1090 H         1 UNK         0.1150 
@<TRIPOS>BOND
     1    1    2 1    
     2    1    3 1    
     3    2    4 2    
     4    2    5 1    
     5    3    6 1    
     6    3   13 1    
     7    3   14 1    
     8    5    7 ar   
     9    5    8 ar   
    10    6   15 1    
    11    6   16 1    
    12    6   17 1    
    13    7    9 ar   
    14    7   18 1    
    15    8   10 ar   
    16    8   19 1    
    17    9   11 1    
    18    9   12 ar   
    19   10   12 ar   
    20   10   20 1    
    21   11   21 1    
    22   12   22 1    
@<TRIPOS>SUBSTRUCTURE
     1 UNK         1 GROUP             0       ****    0 ROOT    
