@<TRIPOS>MOLECULE
title: molecule 1
33   32    1
SMALL
USER_CHARGES


@<TRIPOS>ATOM
      1 C1         -1.4358   -1.6827    0.3940 C.3       1 UNK        -0.1800 
      2 C2         -0.0587   -1.2879    0.9554 C.3       1 UNK        -0.1200 
      3 C3          1.1529   -1.5609    0.0290 C.3       1 UNK         0.2650 
      4 C4          2.4421   -1.0444    0.7168 C.3       1 UNK        -0.1200 
      5 O5          0.9639   -0.8108   -1.1555 O.3       1 UNK        -0.6830 
      6 C6          1.2574   -3.0520   -0.3518 C.3       1 UNK        -0.1800 
      7 C7          3.7459   -1.1802   -0.0957 C.3       1 UNK        -0.1200 
      8 C8          4.9522   -0.5625    0.6327 C.3       1 UNK        -0.1200 
      9 C9          6.2640   -0.5905   -0.1791 C.3       1 UNK        -0.0600 
     10 C10         7.3399    0.2714    0.4992 C.3       1 UNK        -0.1800 
     11 C11         6.7881   -2.0190   -0.4044 C.3       1 UNK        -0.1800 
     12 H12        -2.2269   -1.3852    1.0825 H         1 UNK         0.0600 
     13 H13        -1.6350   -1.1966   -0.5612 H         1 UNK         0.0600 
     14 H14        -1.5231   -2.7593    0.2515 H         1 UNK         0.0600 
     15 H15        -0.0869   -0.2258    1.2033 H         1 UNK         0.0600 
     16 H16         0.0888   -1.8075    1.9029 H         1 UNK         0.0600 
     17 H17         2.3055    0.0069    0.9755 H         1 UNK         0.0600 
     18 H18         2.5704   -1.5660    1.6663 H         1 UNK         0.0600 
     19 H19         1.7074   -0.9512   -1.7213 H         1 UNK         0.4180 
     20 H20         2.0838   -3.2431   -1.0356 H         1 UNK         0.0600 
     21 H21         1.4080   -3.6733    0.5315 H         1 UNK         0.0600 
     22 H22         0.3587   -3.4066   -0.8556 H         1 UNK         0.0600 
     23 H23         3.9463   -2.2324   -0.2904 H         1 UNK         0.0600 
     24 H24         3.6316   -0.6973   -1.0664 H         1 UNK         0.0600 
     25 H25         4.7118    0.4741    0.8726 H         1 UNK         0.0600 
     26 H26         5.1011   -1.0651    1.5894 H         1 UNK         0.0600 
     27 H27         6.0667   -0.1483   -1.1566 H         1 UNK         0.0600 
     28 H28         8.2575    0.2915   -0.0894 H         1 UNK         0.0600 
     29 H29         7.0046    1.3024    0.6155 H         1 UNK         0.0600 
     30 H30         7.5883   -0.1116    1.4896 H         1 UNK         0.0600 
     31 H31         7.7314   -2.0074   -0.9512 H         1 UNK         0.0600 
     32 H32         6.9609   -2.5319    0.5422 H         1 UNK         0.0600 
     33 H33         6.0898   -2.6187   -0.9875 H         1 UNK         0.0600 
@<TRIPOS>BOND
     1    1    2 1    
     2    1   12 1    
     3    1   13 1    
     4    1   14 1    
     5    2    3 1    
     6    2   15 1    
     7    2   16 1    
     8    3    4 1    
     9    3    5 1    
    10    3    6 1    
    11    4    7 1    
    12    4   17 1    
    13    4   18 1    
    14    5   19 1    
    15    6   20 1    
    16    6   21 1    
    17    6   22 1    
    18    7    8 1    
    19    7   23 1    
    20    7   24 1    
    21    8    9 1    
    22    8   25 1    
    23    8   26 1    
    24    9   10 1    
    25    9   11 1    
    26    9   27 1    
    27   10   28 1    
    28   10   29 1    
    29   10   30 1    
    30   11   31 1    
    31   11   32 1    
    32   11   33 1    
@<TRIPOS>SUBSTRUCTURE
     1 UNK         1 GROUP             0       ****    0 ROOT    
