@<TRIPOS>MOLECULE
title: molecule 1
14   13    1
SMALL
USER_CHARGES


@<TRIPOS>ATOM
      1 Br1         3.0998    2.3932   -0.7997 Br        1 UNK        -0.2039 
      2 C2          2.0778    0.8717   -0.0184 C.3       1 UNK        -0.1994 
      3 C3          0.5818    0.9962   -0.3542 C.3       1 UNK         0.0505 
      4 C4         -0.1669   -0.2948    0.0081 C.3       1 UNK        -0.1800 
      5 C5         -0.0637    2.2073    0.3383 C.3       1 UNK        -0.1800 
      6 H6          2.2524    0.8626    1.0579 H         1 UNK         0.1464 
      7 H7          2.5003   -0.0437   -0.4339 H         1 UNK         0.1464 
      8 H8          0.4904    1.1330   -1.4324 H         1 UNK         0.0600 
      9 H9         -1.2207   -0.2280   -0.2641 H         1 UNK         0.0600 
     10 H10         0.2523   -1.1540   -0.5163 H         1 UNK         0.0600 
     11 H11        -0.1118   -0.4984    1.0780 H         1 UNK         0.0600 
     12 H12        -1.1207    2.2869    0.0828 H         1 UNK         0.0600 
     13 H13         0.0102    2.1294    1.4234 H         1 UNK         0.0600 
     14 H14         0.4121    3.1411    0.0391 H         1 UNK         0.0600 
@<TRIPOS>BOND
     1    1    2 1    
     2    2    3 1    
     3    2    6 1    
     4    2    7 1    
     5    3    4 1    
     6    3    5 1    
     7    3    8 1    
     8    4    9 1    
     9    4   10 1    
    10    4   11 1    
    11    5   12 1    
    12    5   13 1    
    13    5   14 1    
@<TRIPOS>SUBSTRUCTURE
     1 UNK         1 GROUP             0       ****    0 ROOT    
