@<TRIPOS>MOLECULE
title: molecule 1
11   10    1
SMALL
USER_CHARGES


@<TRIPOS>ATOM
      1 O1          2.4973    0.1580    0.1183 O.2       1 UNK        -0.4700 
      2 C2          2.4471   -1.0716    0.0971 C.2       1 UNK         0.4700 
      3 C3          1.1914   -1.8383    0.0864 C.2       1 UNK        -0.1150 
      4 C4          3.7483   -1.8646    0.0805 C.3       1 UNK        -0.1800 
      5 C5         -0.0090   -1.2344    0.0994 C.2       1 UNK        -0.2300 
      6 H6          1.2545   -2.9165    0.0675 H         1 UNK         0.1150 
      7 H7          4.6076   -1.1936    0.0904 H         1 UNK         0.0600 
      8 H8          3.8074   -2.5134    0.9545 H         1 UNK         0.0600 
      9 H9          3.8036   -2.4826   -0.8156 H         1 UNK         0.0600 
     10 H10        -0.9177   -1.8181    0.0912 H         1 UNK         0.1150 
     11 H11        -0.1092   -0.1583    0.1184 H         1 UNK         0.1150 
@<TRIPOS>BOND
     1    1    2 2    
     2    2    3 1    
     3    2    4 1    
     4    3    5 2    
     5    3    6 1    
     6    4    7 1    
     7    4    8 1    
     8    4    9 1    
     9    5   10 1    
    10    5   11 1    
@<TRIPOS>SUBSTRUCTURE
     1 UNK         1 GROUP             0       ****    0 ROOT    
