@<TRIPOS>MOLECULE
title: molecule 1
14   13    1
SMALL
USER_CHARGES


@<TRIPOS>ATOM
      1 O1          2.9046    0.2842   -0.0363 O.3       1 UNK        -0.6830 
      2 C2          2.3395   -0.9249    0.4240 C.3       1 UNK         0.2050 
      3 C3          3.3049   -2.0646    0.0664 C.3       1 UNK        -0.1800 
      4 C4          0.9544   -1.0838   -0.2240 C.3       1 UNK         0.0600 
      5 N5          0.1967   -2.2213    0.3198 N.3       1 UNK        -0.9000 
      6 H6          3.7343    0.4128    0.3972 H         1 UNK         0.4180 
      7 H7          2.2341   -0.8557    1.5075 H         1 UNK         0.0600 
      8 H8          2.9324   -3.0243    0.4248 H         1 UNK         0.0600 
      9 H9          3.4442   -2.1441   -1.0124 H         1 UNK         0.0600 
     10 H10         4.2847   -1.9070    0.5182 H         1 UNK         0.0600 
     11 H11         0.3804   -0.1695   -0.0685 H         1 UNK         0.0600 
     12 H12         1.0636   -1.1923   -1.3037 H         1 UNK         0.0600 
     13 H13        -0.7045   -2.3046   -0.1486 H         1 UNK         0.3600 
     14 H14         0.6981   -3.0931    0.1557 H         1 UNK         0.3600 
@<TRIPOS>BOND
     1    1    2 1    
     2    1    6 1    
     3    2    3 1    
     4    2    4 1    
     5    2    7 1    
     6    3    8 1    
     7    3    9 1    
     8    3   10 1    
     9    4    5 1    
    10    4   11 1    
    11    4   12 1    
    12    5   13 1    
    13    5   14 1    
@<TRIPOS>SUBSTRUCTURE
     1 UNK         1 GROUP             0       ****    0 ROOT    
