@<TRIPOS>MOLECULE
title: molecule 1
15   14    1
SMALL
USER_CHARGES


@<TRIPOS>ATOM
      1 N1          0.1863   -2.1983    0.2845 N.3       1 UNK        -0.9000 
      2 C2          0.9681   -1.0806   -0.2651 C.3       1 UNK         0.0600 
      3 C3          2.3448   -0.9268    0.4034 C.3       1 UNK         0.1200 
      4 N4          2.9726    0.3441    0.0143 N.3       1 UNK        -0.9000 
      5 C5          3.2731   -2.1072    0.0782 C.3       1 UNK        -0.1800 
      6 H6         -0.7064   -2.2806   -0.2001 H         1 UNK         0.3600 
      7 H7          0.6809   -3.0788    0.1486 H         1 UNK         0.3600 
      8 H8          1.0929   -1.2079   -1.3410 H         1 UNK         0.0600 
      9 H9          0.4026   -0.1573   -0.1340 H         1 UNK         0.0600 
     10 H10         2.1921   -0.9102    1.4833 H         1 UNK         0.0600 
     11 H11         3.8869    0.4374    0.4544 H         1 UNK         0.3600 
     12 H12         3.1273    0.3705   -0.9925 H         1 UNK         0.3600 
     13 H13         4.2419   -1.9900    0.5648 H         1 UNK         0.0600 
     14 H14         2.8515   -3.0517    0.4225 H         1 UNK         0.0600 
     15 H15         3.4478   -2.1928   -0.9949 H         1 UNK         0.0600 
@<TRIPOS>BOND
     1    1    2 1    
     2    1    6 1    
     3    1    7 1    
     4    2    3 1    
     5    2    8 1    
     6    2    9 1    
     7    3    4 1    
     8    3    5 1    
     9    3   10 1    
    10    4   11 1    
    11    4   12 1    
    12    5   13 1    
    13    5   14 1    
    14    5   15 1    
@<TRIPOS>SUBSTRUCTURE
     1 UNK         1 GROUP             0       ****    0 ROOT    
