@<TRIPOS>MOLECULE
title: molecule 1
16   16    1
SMALL
USER_CHARGES


@<TRIPOS>ATOM
      1 C1          2.9448    1.2483    0.1713 C.ar      1 UNK        -0.1150 
      2 C2          2.9935    2.6606    0.1105 C.ar      1 UNK         0.0900 
      3 C3          1.7151    0.5647    0.1522 C.ar      1 UNK         0.1300 
      4 C4          1.7718    3.3853    0.0176 C.ar      1 UNK         0.1800 
      5 N5          4.3124    3.3255    0.1370 N.pl3     1 UNK         0.6500 
      6 C6          0.5122    1.2875    0.0674 C.ar      1 UNK         0.1300 
      7 F7          1.6923   -0.7877    0.2161 F         1 UNK        -0.1300 
      8 C8          0.5433    2.6922   -0.0009 C.ar      1 UNK        -0.1150 
      9 N9          1.7334    4.7784   -0.0773 N.pl3     1 UNK        -0.9000 
     10 O10         5.2434    2.7616   -0.4287 O.co2     1 UNK        -0.3700 
     11 O11         4.4277    4.3884    0.7389 O.co2     1 UNK        -0.3700 
     12 F12        -0.6741    0.6346    0.0483 F         1 UNK        -0.1300 
     13 H13         3.8592    0.6772    0.2406 H         1 UNK         0.1150 
     14 H14        -0.3868    3.2373   -0.0729 H         1 UNK         0.1150 
     15 H15         2.5679    5.3208    0.1015 H         1 UNK         0.3600 
     16 H16         0.8567    5.2737    0.0032 H         1 UNK         0.3600 
@<TRIPOS>BOND
     1    1    2 ar   
     2    1    3 ar   
     3    1   13 1    
     4    2    4 ar   
     5    2    5 1    
     6    3    6 ar   
     7    3    7 1    
     8    4    8 ar   
     9    4    9 1    
    10    5   10 2    
    11    5   11 1    
    12    6    8 ar   
    13    6   12 1    
    14    8   14 1    
    15    9   15 1    
    16    9   16 1    
@<TRIPOS>SUBSTRUCTURE
     1 UNK         1 GROUP             0       ****    0 ROOT    
