@<TRIPOS>MOLECULE
title: molecule 1
35   37    1
SMALL
USER_CHARGES


@<TRIPOS>ATOM
      1 C1          1.1463   -2.6946    1.2473 C.ar      1 UNK        -0.1150 
      2 C2         -0.2609   -2.6919    1.1905 C.ar      1 UNK        -0.1150 
      3 C3          1.8677   -3.8750    0.9712 C.ar      1 UNK        -0.0900 
      4 C4         -0.9543   -3.8728    0.8635 C.ar      1 UNK        -0.1150 
      5 C5          1.1678   -5.0590    0.6537 C.ar      1 UNK        -0.1150 
      6 P6          3.6872   -3.8479    1.0575 P.3       1 UNK         0.9361 
      7 C7         -0.2396   -5.0565    0.5973 C.ar      1 UNK        -0.1150 
      8 O8          4.1614   -3.7890    2.4693 O.2       1 UNK        -0.6661 
      9 C9          4.3131   -5.3177    0.1846 C.ar      1 UNK        -0.0900 
     10 C10         4.2577   -2.4133    0.0923 C.ar      1 UNK        -0.0900 
     11 C11         5.0290   -6.3035    0.8954 C.ar      1 UNK        -0.1150 
     12 C12         4.0873   -5.4825   -1.1985 C.ar      1 UNK        -0.1150 
     13 C13         5.4286   -1.7345    0.4883 C.ar      1 UNK        -0.1150 
     14 C14         3.5510   -1.9752   -1.0482 C.ar      1 UNK        -0.1150 
     15 C15         5.5156   -7.4450    0.2289 C.ar      1 UNK        -0.1150 
     16 C16         4.5735   -6.6240   -1.8649 C.ar      1 UNK        -0.1150 
     17 C17         5.8887   -0.6249   -0.2472 C.ar      1 UNK        -0.1150 
     18 C18         4.0107   -0.8656   -1.7839 C.ar      1 UNK        -0.1150 
     19 C19         5.2881   -7.6054   -1.1515 C.ar      1 UNK        -0.1150 
     20 C20         5.1795   -0.1900   -1.3834 C.ar      1 UNK        -0.1150 
     21 H21         1.6732   -1.7865    1.5019 H         1 UNK         0.1150 
     22 H22        -0.8080   -1.7843    1.3994 H         1 UNK         0.1150 
     23 H23        -2.0336   -3.8717    0.8208 H         1 UNK         0.1150 
     24 H24         1.7011   -5.9764    0.4544 H         1 UNK         0.1150 
     25 H25        -0.7713   -5.9641    0.3518 H         1 UNK         0.1150 
     26 H26         5.2069   -6.1877    1.9545 H         1 UNK         0.1150 
     27 H27         3.5364   -4.7381   -1.7532 H         1 UNK         0.1150 
     28 H28         5.9772   -2.0644    1.3586 H         1 UNK         0.1150 
     29 H29         2.6541   -2.4871   -1.3645 H         1 UNK         0.1150 
     30 H30         6.0634   -8.1974    0.7770 H         1 UNK         0.1150 
     31 H31         4.3975   -6.7470   -2.9235 H         1 UNK         0.1150 
     32 H32         6.7857   -0.1079    0.0602 H         1 UNK         0.1150 
     33 H33         3.4668   -0.5330   -2.6557 H         1 UNK         0.1150 
     34 H34         5.6611   -8.4808   -1.6625 H         1 UNK         0.1150 
     35 H35         5.5322    0.6608   -1.9477 H         1 UNK         0.1150 
@<TRIPOS>BOND
     1    1    2 ar   
     2    1    3 ar   
     3    1   21 1    
     4    2    4 ar   
     5    2   22 1    
     6    3    5 ar   
     7    3    6 1    
     8    4    7 ar   
     9    4   23 1    
    10    5    7 ar   
    11    5   24 1    
    12    6    8 2    
    13    6    9 1    
    14    6   10 1    
    15    7   25 1    
    16    9   11 ar   
    17    9   12 ar   
    18   10   13 ar   
    19   10   14 ar   
    20   11   15 ar   
    21   11   26 1    
    22   12   16 ar   
    23   12   27 1    
    24   13   17 ar   
    25   13   28 1    
    26   14   18 ar   
    27   14   29 1    
    28   15   19 ar   
    29   15   30 1    
    30   16   19 ar   
    31   16   31 1    
    32   17   20 ar   
    33   17   32 1    
    34   18   20 ar   
    35   18   33 1    
    36   19   34 1    
    37   20   35 1    
@<TRIPOS>SUBSTRUCTURE
     1 UNK         1 GROUP             0       ****    0 ROOT    
