@<TRIPOS>MOLECULE
title: molecule 1
20   20    1
SMALL
USER_CHARGES


@<TRIPOS>ATOM
      1 C1          3.4007    1.6554    0.2013 C.ar      1 UNK         0.0900 
      2 C2          1.9903    1.6869    0.2756 C.ar      1 UNK        -0.1150 
      3 C3          4.1144    2.8667   -0.0139 C.ar      1 UNK         0.0900 
      4 N4          4.0825    0.3571    0.3259 N.pl3     1 UNK         0.6500 
      5 C5          1.2823    2.8943    0.1148 C.ar      1 UNK        -0.0779 
      6 C6          3.3961    4.0710   -0.1850 C.ar      1 UNK        -0.1150 
      7 N7          5.5852    2.9143   -0.0407 N.pl3     1 UNK         0.6500 
      8 O8          3.7316   -0.3827    1.2386 O.co2     1 UNK        -0.3700 
      9 O9          4.9364    0.0699   -0.5064 O.co2     1 UNK        -0.3700 
     10 C10         1.9909    4.0876   -0.1216 C.ar      1 UNK        -0.1150 
     11 C11        -0.2323    2.9017    0.1908 C.3       1 UNK         0.1972 
     12 O12         6.1987    2.3474    0.8574 O.co2     1 UNK        -0.3700 
     13 O13         6.1160    3.5521   -0.9435 O.co2     1 UNK        -0.3700 
     14 O14        -0.8298    2.1665   -0.8552 O.3       1 UNK        -0.6333 
     15 H15         1.4418    0.7706    0.4408 H         1 UNK         0.1150 
     16 H16         3.9273    4.9967   -0.3526 H         1 UNK         0.1150 
     17 H17         1.4616    5.0206   -0.2505 H         1 UNK         0.1150 
     18 H18        -0.5435    2.4762    1.1454 H         1 UNK         0.0480 
     19 H19        -0.6084    3.9249    0.1613 H         1 UNK         0.0480 
     20 H20        -1.7686    2.2057   -0.7533 H         1 UNK         0.4180 
@<TRIPOS>BOND
     1    1    2 ar   
     2    1    3 ar   
     3    1    4 1    
     4    2    5 ar   
     5    2   15 1    
     6    3    6 ar   
     7    3    7 1    
     8    4    8 2    
     9    4    9 1    
    10    5   10 ar   
    11    5   11 1    
    12    6   10 ar   
    13    6   16 1    
    14    7   12 2    
    15    7   13 1    
    16   10   17 1    
    17   11   14 1    
    18   11   18 1    
    19   11   19 1    
    20   14   20 1    
@<TRIPOS>SUBSTRUCTURE
     1 UNK         1 GROUP             0       ****    0 ROOT    
