@<TRIPOS>MOLECULE
title: molecule 1
21   20    1
SMALL
USER_CHARGES


@<TRIPOS>ATOM
      1 C1         -0.9272   -0.3010   -0.2047 C.3       1 UNK        -0.1800 
      2 C2          0.5557   -0.5546   -0.4860 C.3       1 UNK         0.1900 
      3 O3          1.3116    0.5639   -0.0533 O.3       1 UNK        -0.3300 
      4 C4          2.6504    0.5648   -0.2058 C.2       1 UNK         0.5100 
      5 O5          3.3053   -0.3511   -0.7075 O.2       1 UNK        -0.4300 
      6 C6          3.3162    1.8559    0.3108 C.3       1 UNK         0.2650 
      7 C7          4.8481    1.7169    0.4095 C.3       1 UNK        -0.1800 
      8 C8          2.9311    3.0465   -0.5861 C.3       1 UNK        -0.1800 
      9 O9          2.8346    2.1422    1.6108 O.3       1 UNK        -0.6830 
     10 H10        -1.5334   -1.1472   -0.5282 H         1 UNK         0.0600 
     11 H11        -1.1041   -0.1506    0.8606 H         1 UNK         0.0600 
     12 H12        -1.2805    0.5850   -0.7329 H         1 UNK         0.0600 
     13 H13         0.8886   -1.4519    0.0374 H         1 UNK         0.0300 
     14 H14         0.7121   -0.7174   -1.5533 H         1 UNK         0.0300 
     15 H15         5.3006    2.6202    0.8204 H         1 UNK         0.0600 
     16 H16         5.1364    0.8851    1.0540 H         1 UNK         0.0600 
     17 H17         5.2968    1.5471   -0.5702 H         1 UNK         0.0600 
     18 H18         3.3716    3.9746   -0.2200 H         1 UNK         0.0600 
     19 H19         3.2806    2.9007   -1.6090 H         1 UNK         0.0600 
     20 H20         1.8507    3.1932   -0.6241 H         1 UNK         0.0600 
     21 H21         3.0925    1.4391    2.1871 H         1 UNK         0.4180 
@<TRIPOS>BOND
     1    1    2 1    
     2    1   10 1    
     3    1   11 1    
     4    1   12 1    
     5    2    3 1    
     6    2   13 1    
     7    2   14 1    
     8    3    4 1    
     9    4    5 2    
    10    4    6 1    
    11    6    7 1    
    12    6    8 1    
    13    6    9 1    
    14    7   15 1    
    15    7   16 1    
    16    7   17 1    
    17    8   18 1    
    18    8   19 1    
    19    8   20 1    
    20    9   21 1    
@<TRIPOS>SUBSTRUCTURE
     1 UNK         1 GROUP             0       ****    0 ROOT    
