@<TRIPOS>MOLECULE
title: molecule 1
14   13    1
SMALL
USER_CHARGES


@<TRIPOS>ATOM
      1 C1         -0.4728    1.0114    0.2765 C.3       1 UNK        -0.1800 
      2 C2          0.8050    1.8508    0.1471 C.3       1 UNK        -0.0095 
      3 C3          2.0940    1.0109    0.2337 C.3       1 UNK        -0.0530 
      4 C4          3.3382    1.8860    0.3969 C.2       1 UNK         0.5200 
      5 Br5         2.2480   -0.1448   -1.3840 Br        1 UNK        -0.2039 
      6 O6          3.5520    2.6787   -0.6924 O.3       1 UNK        -0.5300 
      7 O7          4.0455    1.8652    1.4013 O.2       1 UNK        -0.4400 
      8 H8         -1.3579    1.6466    0.2366 H         1 UNK         0.0600 
      9 H9         -0.5552    0.2816   -0.5290 H         1 UNK         0.0600 
     10 H10        -0.4953    0.4708    1.2229 H         1 UNK         0.0600 
     11 H11         0.7826    2.4032   -0.7933 H         1 UNK         0.0600 
     12 H12         0.8022    2.5994    0.9409 H         1 UNK         0.0600 
     13 H13         2.0408    0.3421    1.0936 H         1 UNK         0.1464 
     14 H14         4.3211    3.2185   -0.5956 H         1 UNK         0.4500 
@<TRIPOS>BOND
     1    1    2 1    
     2    1    8 1    
     3    1    9 1    
     4    1   10 1    
     5    2    3 1    
     6    2   11 1    
     7    2   12 1    
     8    3    4 1    
     9    3    5 1    
    10    3   13 1    
    11    4    6 1    
    12    4    7 2    
    13    6   14 1    
@<TRIPOS>SUBSTRUCTURE
     1 UNK         1 GROUP             0       ****    0 ROOT    
