@<TRIPOS>MOLECULE
title: molecule 1
24   23    1
SMALL
USER_CHARGES


@<TRIPOS>ATOM
      1 C1          3.8463    1.1181    0.6502 C.2       1 UNK        -0.2300 
      2 C2          3.0866    0.0194    0.5251 C.2       1 UNK        -0.1150 
      3 C3          1.6408   -0.0802    0.9732 C.3       1 UNK        -0.1200 
      4 C4          0.6605   -0.3452   -0.1862 C.3       1 UNK        -0.0600 
      5 C5         -0.7755   -0.2240    0.3142 C.2       1 UNK        -0.1150 
      6 C6          0.8681   -1.7280   -0.8263 C.3       1 UNK        -0.1800 
      7 C7         -1.7345    0.6654   -0.0276 C.2       1 UNK         0.0000 
      8 C8         -1.5122    1.7447   -1.0138 C.2       1 UNK         0.4500 
      9 C9         -3.1239    0.6195    0.5873 C.3       1 UNK        -0.1800 
     10 O10        -2.3743    2.5575   -1.3453 O.2       1 UNK        -0.4500 
     11 H11         4.8722    1.1242    0.3124 H         1 UNK         0.1150 
     12 H12         3.4564    2.0245    1.0899 H         1 UNK         0.1150 
     13 H13         3.5172   -0.8659    0.0810 H         1 UNK         0.1150 
     14 H14         1.5631   -0.8674    1.7241 H         1 UNK         0.0600 
     15 H15         1.3682    0.8502    1.4741 H         1 UNK         0.0600 
     16 H16         0.8612    0.3944   -0.9574 H         1 UNK         0.0600 
     17 H17        -1.0370   -0.9721    1.0488 H         1 UNK         0.1150 
     18 H18         0.1447   -1.9002   -1.6240 H         1 UNK         0.0600 
     19 H19         1.8600   -1.8236   -1.2674 H         1 UNK         0.0600 
     20 H20         0.7501   -2.5276   -0.0941 H         1 UNK         0.0600 
     21 H21        -0.5204    1.8012   -1.4556 H         1 UNK         0.0000 
     22 H22        -3.8806    0.4736   -0.1846 H         1 UNK         0.0600 
     23 H23        -3.2161   -0.1973    1.3038 H         1 UNK         0.0600 
     24 H24        -3.3424    1.5504    1.1120 H         1 UNK         0.0600 
@<TRIPOS>BOND
     1    1    2 2    
     2    1   11 1    
     3    1   12 1    
     4    2    3 1    
     5    2   13 1    
     6    3    4 1    
     7    3   14 1    
     8    3   15 1    
     9    4    5 1    
    10    4    6 1    
    11    4   16 1    
    12    5    7 2    
    13    5   17 1    
    14    6   18 1    
    15    6   19 1    
    16    6   20 1    
    17    7    8 1    
    18    7    9 1    
    19    8   10 2    
    20    8   21 1    
    21    9   22 1    
    22    9   23 1    
    23    9   24 1    
@<TRIPOS>SUBSTRUCTURE
     1 UNK         1 GROUP             0       ****    0 ROOT    
