@<TRIPOS>MOLECULE
title: molecule 1
19   18    1
SMALL
USER_CHARGES


@<TRIPOS>ATOM
      1 O1         -0.9309    0.2886    0.2689 O.3       1 UNK        -0.6830 
      2 C2          0.2764    0.9163   -0.1056 C.3       1 UNK         0.1450 
      3 C3          1.4635    0.0105    0.2475 C.3       1 UNK        -0.1200 
      4 C4          2.8135    0.6346   -0.1346 C.3       1 UNK        -0.1200 
      5 C5          4.0017   -0.2706    0.2192 C.3       1 UNK        -0.1200 
      6 C6          5.3261    0.3535   -0.1693 C.2       1 UNK        -0.1150 
      7 C7          6.3237    0.6155    0.6884 C.2       1 UNK        -0.2300 
      8 H8         -1.6502    0.8594    0.0448 H         1 UNK         0.4180 
      9 H9          0.2536    1.1219   -1.1763 H         1 UNK         0.0600 
     10 H10         0.3551    1.8735    0.4107 H         1 UNK         0.0600 
     11 H11         1.4520   -0.2019    1.3175 H         1 UNK         0.0600 
     12 H12         1.3511   -0.9490   -0.2592 H         1 UNK         0.0600 
     13 H13         2.8242    0.8474   -1.2045 H         1 UNK         0.0600 
     14 H14         2.9257    1.5939    0.3724 H         1 UNK         0.0600 
     15 H15         3.9999   -0.4890    1.2881 H         1 UNK         0.0600 
     16 H16         3.9100   -1.2264   -0.2976 H         1 UNK         0.0600 
     17 H17         5.4535    0.5937   -1.2150 H         1 UNK         0.1150 
     18 H18         7.2460    1.0619    0.3468 H         1 UNK         0.1150 
     19 H19         6.2342    0.3891    1.7409 H         1 UNK         0.1150 
@<TRIPOS>BOND
     1    1    2 1    
     2    1    8 1    
     3    2    3 1    
     4    2    9 1    
     5    2   10 1    
     6    3    4 1    
     7    3   11 1    
     8    3   12 1    
     9    4    5 1    
    10    4   13 1    
    11    4   14 1    
    12    5    6 1    
    13    5   15 1    
    14    5   16 1    
    15    6    7 2    
    16    6   17 1    
    17    7   18 1    
    18    7   19 1    
@<TRIPOS>SUBSTRUCTURE
     1 UNK         1 GROUP             0       ****    0 ROOT    
