@<TRIPOS>MOLECULE
title: molecule 1
12   11    1
SMALL
USER_CHARGES


@<TRIPOS>ATOM
      1 Br1        -0.3034   -0.7223    0.6199 Br        1 UNK        -0.2039 
      2 C2          1.1446    0.4615   -0.0592 C.3       1 UNK        -0.0889 
      3 C3          2.4177   -0.3406   -0.2146 C.2       1 UNK        -0.1150 
      4 C4          3.5755   -0.0525    0.4010 C.2       1 UNK        -0.1150 
      5 C5          4.8486   -0.8546    0.2457 C.3       1 UNK        -0.0889 
      6 Br6         6.2966    0.3292   -0.4335 Br        1 UNK        -0.2039 
      7 H7          1.2694    1.2858    0.6437 H         1 UNK         0.1464 
      8 H8          0.8296    0.8667   -1.0210 H         1 UNK         0.1464 
      9 H9          2.3610   -1.1956   -0.8727 H         1 UNK         0.1150 
     10 H10         3.6322    0.8025    1.0591 H         1 UNK         0.1150 
     11 H11         5.1637   -1.2598    1.2074 H         1 UNK         0.1464 
     12 H12         4.7238   -1.6790   -0.4572 H         1 UNK         0.1464 
@<TRIPOS>BOND
     1    1    2 1    
     2    2    3 1    
     3    2    7 1    
     4    2    8 1    
     5    3    4 2    
     6    3    9 1    
     7    4    5 1    
     8    4   10 1    
     9    5    6 1    
    10    5   11 1    
    11    5   12 1    
@<TRIPOS>SUBSTRUCTURE
     1 UNK         1 GROUP             0       ****    0 ROOT    
