@<TRIPOS>MOLECULE
title: molecule 1
20   20    1
SMALL
USER_CHARGES


@<TRIPOS>ATOM
      1 C1          4.9518    0.2703    0.1801 C.3       1 UNK        -0.0650 
      2 C2          4.1454   -1.0175    0.1521 C.ar      1 UNK        -0.1150 
      3 C3          4.8390   -2.2435    0.2184 C.ar      1 UNK        -0.1150 
      4 C4          2.7273   -1.0070    0.0623 C.ar      1 UNK        -0.1150 
      5 C5          4.1379   -3.4602    0.2010 C.ar      1 UNK        -0.1150 
      6 C6          2.0186   -2.2418    0.0725 C.ar      1 UNK         0.0900 
      7 C7          1.9779    0.3172   -0.0557 C.3       1 UNK        -0.0650 
      8 C8          2.7351   -3.4569    0.1300 C.ar      1 UNK        -0.1150 
      9 N9          0.5476   -2.3016    0.0287 N.pl3     1 UNK         0.6500 
     10 O10         0.0358   -3.0832   -0.7658 O.co2     1 UNK        -0.3700 
     11 O11        -0.0870   -1.5972    0.8069 O.co2     1 UNK        -0.3700 
     12 H12         4.5576    0.9572    0.9295 H         1 UNK         0.0600 
     13 H13         5.9967    0.0797    0.4265 H         1 UNK         0.0600 
     14 H14         4.9224    0.7595   -0.7938 H         1 UNK         0.0600 
     15 H15         5.9174   -2.2567    0.2813 H         1 UNK         0.1150 
     16 H16         4.6756   -4.3957    0.2500 H         1 UNK         0.1150 
     17 H17         2.5838    1.1009   -0.5080 H         1 UNK         0.0600 
     18 H18         1.0949    0.2183   -0.6870 H         1 UNK         0.0600 
     19 H19         1.6602    0.6581    0.9298 H         1 UNK         0.0600 
     20 H20         2.2041   -4.3978    0.1309 H         1 UNK         0.1150 
@<TRIPOS>BOND
     1    1    2 1    
     2    1   12 1    
     3    1   13 1    
     4    1   14 1    
     5    2    3 ar   
     6    2    4 ar   
     7    3    5 ar   
     8    3   15 1    
     9    4    6 ar   
    10    4    7 1    
    11    5    8 ar   
    12    5   16 1    
    13    6    8 ar   
    14    6    9 1    
    15    7   17 1    
    16    7   18 1    
    17    7   19 1    
    18    8   20 1    
    19    9   10 1    
    20    9   11 2    
@<TRIPOS>SUBSTRUCTURE
     1 UNK         1 GROUP             0       ****    0 ROOT    
