@<TRIPOS>MOLECULE
title: molecule 1
19   20    1
SMALL
USER_CHARGES


@<TRIPOS>ATOM
      1 O1          2.2939   -5.2396    0.1003 O.2       1 UNK        -0.4700 
      2 C2          2.3244   -4.0080    0.0962 C.2       1 UNK         0.5850 
      3 C3          1.0831   -3.1966    0.0888 C.2       1 UNK         0.0488 
      4 C4          3.6082   -3.2470    0.0984 C.ar      1 UNK        -0.1150 
      5 O5         -0.0772   -3.8691    0.0867 O.3       1 UNK        -0.4040 
      6 C6          1.0974   -1.8465    0.0842 C.2       1 UNK        -0.1150 
      7 C7          3.6164   -1.8257    0.0935 C.ar      1 UNK        -0.1150 
      8 C8          4.8362   -3.9487    0.1054 C.ar      1 UNK        -0.1150 
      9 C9          2.3414   -1.0537    0.0861 C.2       1 UNK         0.5850 
     10 C10         4.8509   -1.1360    0.0958 C.ar      1 UNK        -0.1150 
     11 C11         6.0586   -3.2515    0.1076 C.ar      1 UNK        -0.1150 
     12 O12         2.3093    0.1763    0.0818 O.2       1 UNK        -0.4700 
     13 C13         6.0660   -1.8456    0.1028 C.ar      1 UNK        -0.1150 
     14 H14        -0.7774   -3.2349    0.0819 H         1 UNK         0.3552 
     15 H15         0.1667   -1.2976    0.0788 H         1 UNK         0.1150 
     16 H16         4.8533   -5.0292    0.1091 H         1 UNK         0.1150 
     17 H17         4.8781   -0.0556    0.0922 H         1 UNK         0.1150 
     18 H18         6.9911   -3.7965    0.1129 H         1 UNK         0.1150 
     19 H19         7.0041   -1.3103    0.1044 H         1 UNK         0.1150 
@<TRIPOS>BOND
     1    1    2 2    
     2    2    3 1    
     3    2    4 1    
     4    3    5 1    
     5    3    6 2    
     6    4    7 ar   
     7    4    8 ar   
     8    5   14 1    
     9    6    9 1    
    10    6   15 1    
    11    7    9 1    
    12    7   10 ar   
    13    8   11 ar   
    14    8   16 1    
    15    9   12 2    
    16   10   13 ar   
    17   10   17 1    
    18   11   13 ar   
    19   11   18 1    
    20   13   19 1    
@<TRIPOS>SUBSTRUCTURE
     1 UNK         1 GROUP             0       ****    0 ROOT    
