@<TRIPOS>MOLECULE
title: molecule 1
42   42    1
SMALL
USER_CHARGES


@<TRIPOS>ATOM
      1 C1          8.5658   -7.6458    0.6891 C.ar      1 UNK        -0.1150 
      2 C2          7.4560   -8.4948    0.5591 C.ar      1 UNK        -0.1150 
      3 C3          8.4439   -6.2831    0.3673 C.ar      1 UNK        -0.1150 
      4 C4          6.2333   -7.9829    0.0907 C.ar      1 UNK        -0.1150 
      5 C5          7.2160   -5.7444   -0.0839 C.ar      1 UNK        -0.1150 
      6 C6          6.0908   -6.6146   -0.2511 C.ar      1 UNK        -0.1150 
      7 C7          7.2036   -4.2712   -0.3278 C.2       1 UNK         0.6250 
      8 C8          4.7760   -6.1809   -0.8237 C.2       1 UNK         0.6250 
      9 O9          8.1293   -3.6660   -0.8714 O.2       1 UNK        -0.4300 
     10 O10         6.1052   -3.6742    0.1714 O.3       1 UNK        -0.3300 
     11 O11         4.6533   -5.3279   -1.7052 O.2       1 UNK        -0.4300 
     12 O12         3.7354   -6.8328   -0.2674 O.3       1 UNK        -0.3300 
     13 C13         5.9217   -2.2776    0.0150 C.3       1 UNK         0.1900 
     14 C14         2.4124   -6.5392   -0.6855 C.3       1 UNK         0.1900 
     15 C15         4.5113   -1.9053    0.4853 C.3       1 UNK        -0.1200 
     16 C16         1.4269   -7.4068    0.1054 C.3       1 UNK        -0.1200 
     17 C17         4.2245   -0.4047    0.3410 C.3       1 UNK        -0.1200 
     18 C18        -0.0316   -7.1437   -0.2932 C.3       1 UNK        -0.1200 
     19 C19         2.8141   -0.0274    0.8075 C.3       1 UNK        -0.1800 
     20 C20        -1.0226   -8.0083    0.4941 C.3       1 UNK        -0.1800 
     21 H21         9.5088   -8.0369    1.0416 H         1 UNK         0.1150 
     22 H22         7.5449   -9.5426    0.8059 H         1 UNK         0.1150 
     23 H23         9.3071   -5.6445    0.4922 H         1 UNK         0.1150 
     24 H24         5.4081   -8.6708   -0.0272 H         1 UNK         0.1150 
     25 H25         6.6730   -1.7406    0.5955 H         1 UNK         0.0300 
     26 H26         6.0502   -1.9995   -1.0322 H         1 UNK         0.0300 
     27 H27         2.1996   -5.4820   -0.5203 H         1 UNK         0.0300 
     28 H28         2.3116   -6.7336   -1.7542 H         1 UNK         0.0300 
     29 H29         3.7785   -2.4740   -0.0889 H         1 UNK         0.0600 
     30 H30         4.3870   -2.2027    1.5273 H         1 UNK         0.0600 
     31 H31         1.6644   -8.4595   -0.0528 H         1 UNK         0.0600 
     32 H32         1.5536   -7.2169    1.1720 H         1 UNK         0.0600 
     33 H33         4.9571    0.1643    0.9145 H         1 UNK         0.0600 
     34 H34         4.3496   -0.1073   -0.7008 H         1 UNK         0.0600 
     35 H35        -0.2695   -6.0911   -0.1357 H         1 UNK         0.0600 
     36 H36        -0.1588   -7.3326   -1.3598 H         1 UNK         0.0600 
     37 H37         2.6403    1.0427    0.6927 H         1 UNK         0.0600 
     38 H38         2.0539   -0.5518    0.2279 H         1 UNK         0.0600 
     39 H39         2.6667   -0.2772    1.8586 H         1 UNK         0.0600 
     40 H40        -2.0482   -7.7990    0.1892 H         1 UNK         0.0600 
     41 H41        -0.8369   -9.0700    0.3293 H         1 UNK         0.0600 
     42 H42        -0.9486   -7.8167    1.5649 H         1 UNK         0.0600 
@<TRIPOS>BOND
     1    1    2 ar   
     2    1    3 ar   
     3    1   21 1    
     4    2    4 ar   
     5    2   22 1    
     6    3    5 ar   
     7    3   23 1    
     8    4    6 ar   
     9    4   24 1    
    10    5    6 ar   
    11    5    7 1    
    12    6    8 1    
    13    7    9 2    
    14    7   10 1    
    15    8   11 2    
    16    8   12 1    
    17   10   13 1    
    18   12   14 1    
    19   13   15 1    
    20   13   25 1    
    21   13   26 1    
    22   14   16 1    
    23   14   27 1    
    24   14   28 1    
    25   15   17 1    
    26   15   29 1    
    27   15   30 1    
    28   16   18 1    
    29   16   31 1    
    30   16   32 1    
    31   17   19 1    
    32   17   33 1    
    33   17   34 1    
    34   18   20 1    
    35   18   35 1    
    36   18   36 1    
    37   19   37 1    
    38   19   38 1    
    39   19   39 1    
    40   20   40 1    
    41   20   41 1    
    42   20   42 1    
@<TRIPOS>SUBSTRUCTURE
     1 UNK         1 GROUP             0       ****    0 ROOT    
