@<TRIPOS>MOLECULE
title: molecule 1
21   22    1
SMALL
USER_CHARGES


@<TRIPOS>ATOM
      1 C1          1.0091   -0.3627    0.3159 C.ar      1 UNK         0.0594 
      2 C2          1.1287   -1.7585    0.4888 C.ar      1 UNK        -0.1150 
      3 C3         -0.2757    0.2115    0.1166 C.ar      1 UNK         0.0000 
      4 C4          2.2792    0.4754    0.3350 C.3       1 UNK        -0.0654 
      5 C5         -0.0086   -2.5853    0.4654 C.ar      1 UNK        -0.1150 
      6 C6         -1.4201   -0.6315    0.0924 C.ar      1 UNK         0.0000 
      7 C7         -0.4543    1.6057   -0.0549 C.ar      1 UNK        -0.1150 
      8 Cl8         2.4655    1.3315    1.8875 Cl        1 UNK        -0.2000 
      9 C9         -1.2813   -2.0231    0.2663 C.ar      1 UNK        -0.1150 
     10 C10        -2.7048   -0.0837   -0.1048 C.ar      1 UNK        -0.1150 
     11 C11        -1.7395    2.1465   -0.2506 C.ar      1 UNK        -0.1150 
     12 C12        -2.8645    1.3032   -0.2769 C.ar      1 UNK        -0.1150 
     13 H13         2.1005   -2.2048    0.6414 H         1 UNK         0.1150 
     14 H14         3.1604   -0.1529    0.2021 H         1 UNK         0.1030 
     15 H15         2.2884    1.2100   -0.4700 H         1 UNK         0.1030 
     16 H16         0.0958   -3.6519    0.5993 H         1 UNK         0.1150 
     17 H17         0.3839    2.2850   -0.0341 H         1 UNK         0.1150 
     18 H18        -2.1500   -2.6654    0.2489 H         1 UNK         0.1150 
     19 H19        -3.5743   -0.7248   -0.1240 H         1 UNK         0.1150 
     20 H20        -1.8617    3.2119   -0.3794 H         1 UNK         0.1150 
     21 H21        -3.8497    1.7198   -0.4268 H         1 UNK         0.1150 
@<TRIPOS>BOND
     1    1    2 ar   
     2    1    3 ar   
     3    1    4 1    
     4    2    5 ar   
     5    2   13 1    
     6    3    6 ar   
     7    3    7 ar   
     8    4    8 1    
     9    4   14 1    
    10    4   15 1    
    11    5    9 ar   
    12    5   16 1    
    13    6    9 ar   
    14    6   10 ar   
    15    7   11 ar   
    16    7   17 1    
    17    9   18 1    
    18   10   12 ar   
    19   10   19 1    
    20   11   12 ar   
    21   11   20 1    
    22   12   21 1    
@<TRIPOS>SUBSTRUCTURE
     1 UNK         1 GROUP             0       ****    0 ROOT    
