@<TRIPOS>MOLECULE
title: molecule 1
17   17    1
SMALL
USER_CHARGES


@<TRIPOS>ATOM
      1 N1          1.4745   -4.6440    0.2668 N.pl3     1 UNK        -0.9000 
      2 C2          2.1335   -3.4174    0.1687 C.ar      1 UNK         0.1800 
      3 C3          1.4234   -2.1913    0.0790 C.ar      1 UNK        -0.1150 
      4 C4          3.5432   -3.4177    0.1591 C.ar      1 UNK        -0.1150 
      5 C5          2.1492   -0.9791   -0.0229 C.ar      1 UNK         0.1800 
      6 C6         -0.1006   -2.1465    0.0871 C.3       1 UNK        -0.0650 
      7 C7          4.2550   -2.2090    0.0595 C.ar      1 UNK        -0.1150 
      8 C8          3.5575   -0.9918   -0.0318 C.ar      1 UNK        -0.1150 
      9 Cl9         1.3338    0.5412   -0.1402 Cl        1 UNK        -0.1800 
     10 H10         1.9838   -5.5160    0.2750 H         1 UNK         0.3600 
     11 H11         0.4677   -4.7057    0.2203 H         1 UNK         0.3600 
     12 H12         4.0874   -4.3486    0.2279 H         1 UNK         0.1150 
     13 H13        -0.4522   -1.5077    0.8976 H         1 UNK         0.0600 
     14 H14        -0.4663   -1.7341   -0.8536 H         1 UNK         0.0600 
     15 H15        -0.5649   -3.1221    0.2205 H         1 UNK         0.0600 
     16 H16         5.3350   -2.2158    0.0525 H         1 UNK         0.1150 
     17 H17         4.1053   -0.0641   -0.1094 H         1 UNK         0.1150 
@<TRIPOS>BOND
     1    1    2 1    
     2    1   10 1    
     3    1   11 1    
     4    2    3 ar   
     5    2    4 ar   
     6    3    5 ar   
     7    3    6 1    
     8    4    7 ar   
     9    4   12 1    
    10    5    8 ar   
    11    5    9 1    
    12    6   13 1    
    13    6   14 1    
    14    6   15 1    
    15    7    8 ar   
    16    7   16 1    
    17    8   17 1    
@<TRIPOS>SUBSTRUCTURE
     1 UNK         1 GROUP             0       ****    0 ROOT    
