@<TRIPOS>MOLECULE
title: molecule 1
12   12    1
SMALL
USER_CHARGES


@<TRIPOS>ATOM
      1 Cl1        -0.2859   -2.1462    0.1012 Cl        1 UNK        -0.1800 
      2 C2          1.4448   -2.1590    0.0966 C.ar      1 UNK         0.1800 
      3 C3          2.1644   -0.9422    0.0910 C.ar      1 UNK         0.1800 
      4 C4          2.1463   -3.3864    0.0986 C.ar      1 UNK         0.1800 
      5 Cl5         1.3400    0.5766    0.0885 Cl        1 UNK        -0.1800 
      6 C6          3.5732   -0.9564    0.0873 C.ar      1 UNK        -0.1150 
      7 C7          3.5553   -3.3929    0.0949 C.ar      1 UNK        -0.1150 
      8 Cl8         1.2996   -4.8928    0.1055 Cl        1 UNK        -0.1800 
      9 C9          4.2689   -2.1799    0.0893 C.ar      1 UNK        -0.1150 
     10 H10         4.1227   -0.0263    0.0830 H         1 UNK         0.1150 
     11 H11         4.0909   -4.3310    0.0964 H         1 UNK         0.1150 
     12 H12         5.3490   -2.1878    0.0864 H         1 UNK         0.1150 
@<TRIPOS>BOND
     1    1    2 1    
     2    2    3 ar   
     3    2    4 ar   
     4    3    5 1    
     5    3    6 ar   
     6    4    7 ar   
     7    4    8 1    
     8    6    9 ar   
     9    6   10 1    
    10    7    9 ar   
    11    7   11 1    
    12    9   12 1    
@<TRIPOS>SUBSTRUCTURE
     1 UNK         1 GROUP             0       ****    0 ROOT    
