@<TRIPOS>MOLECULE
title: molecule 1
15   15    1
SMALL
USER_CHARGES


@<TRIPOS>ATOM
      1 C1          2.6135    0.1358    0.1031 C.1       1 UNK         0.3950 
      2 C2          1.1600    0.1350    0.1010 C.ar      1 UNK         0.0350 
      3 N3          3.7705    0.1365    0.1047 N.1       1 UNK        -0.4300 
      4 C4          0.4522    1.3549    0.1051 C.ar      1 UNK        -0.1150 
      5 C5          0.4536   -1.0857    0.0948 C.ar      1 UNK        -0.1150 
      6 C6         -0.9567    1.3536    0.1030 C.ar      1 UNK        -0.1150 
      7 C7         -0.9553   -1.0861    0.0927 C.ar      1 UNK        -0.1150 
      8 C8         -1.6620    0.1334    0.0969 C.ar      1 UNK         0.1800 
      9 N9         -3.0556    0.1326    0.0948 N.pl3     1 UNK        -0.9000 
     10 H10         0.9837    2.2958    0.1098 H         1 UNK         0.1150 
     11 H11         0.9863   -2.0260    0.0916 H         1 UNK         0.1150 
     12 H12        -1.4914    2.2923    0.1062 H         1 UNK         0.1150 
     13 H13        -1.4889   -2.0254    0.0880 H         1 UNK         0.1150 
     14 H14        -3.5838   -0.7282    0.0904 H         1 UNK         0.3600 
     15 H15        -3.5848    0.9927    0.0977 H         1 UNK         0.3600 
@<TRIPOS>BOND
     1    1    2 1    
     2    1    3 3    
     3    2    4 ar   
     4    2    5 ar   
     5    4    6 ar   
     6    4   10 1    
     7    5    7 ar   
     8    5   11 1    
     9    6    8 ar   
    10    6   12 1    
    11    7    8 ar   
    12    7   13 1    
    13    8    9 1    
    14    9   14 1    
    15    9   15 1    
@<TRIPOS>SUBSTRUCTURE
     1 UNK         1 GROUP             0       ****    0 ROOT    
