@<TRIPOS>MOLECULE
title: molecule 1
17   17    1
SMALL
USER_CHARGES


@<TRIPOS>ATOM
      1 C1          4.2457    1.1363    0.1086 C.ar      1 UNK         0.0350 
      2 C2          3.5884   -0.1095    0.1458 C.ar      1 UNK        -0.1150 
      3 C3          3.4886    2.3232    0.0572 C.ar      1 UNK        -0.1150 
      4 C4          5.6979    1.1965    0.1230 C.1       1 UNK         0.3950 
      5 C5          2.1809   -0.1692    0.1318 C.ar      1 UNK        -0.1150 
      6 C6          2.0817    2.2612    0.0433 C.ar      1 UNK        -0.1150 
      7 N7          6.8539    1.2445    0.1346 N.1       1 UNK        -0.4300 
      8 C8          1.4118    1.0210    0.0802 C.ar      1 UNK         0.0850 
      9 O9          0.0339    1.0532    0.0633 O.3       1 UNK        -0.2850 
     10 C10        -0.6643   -0.1830    0.0997 C.3       1 UNK         0.1100 
     11 H11         4.1588   -1.0266    0.1853 H         1 UNK         0.1150 
     12 H12         3.9799    3.2853    0.0283 H         1 UNK         0.1150 
     13 H13         1.7146   -1.1421    0.1614 H         1 UNK         0.1150 
     14 H14         1.5092    3.1764    0.0039 H         1 UNK         0.1150 
     15 H15        -1.7369    0.0092    0.0805 H         1 UNK         0.0300 
     16 H16        -0.4250   -0.8019   -0.7661 H         1 UNK         0.0300 
     17 H17        -0.4454   -0.7380    1.0129 H         1 UNK         0.0300 
@<TRIPOS>BOND
     1    1    2 ar   
     2    1    3 ar   
     3    1    4 1    
     4    2    5 ar   
     5    2   11 1    
     6    3    6 ar   
     7    3   12 1    
     8    4    7 3    
     9    5    8 ar   
    10    5   13 1    
    11    6    8 ar   
    12    6   14 1    
    13    8    9 1    
    14    9   10 1    
    15   10   15 1    
    16   10   16 1    
    17   10   17 1    
@<TRIPOS>SUBSTRUCTURE
     1 UNK         1 GROUP             0       ****    0 ROOT    
