@<TRIPOS>MOLECULE
title: molecule 1
19   19    1
SMALL
USER_CHARGES


@<TRIPOS>ATOM
      1 C1          2.4067   -1.0785    0.1901 C.ar      1 UNK         0.1500 
      2 O2          2.3956    0.2839    0.2628 O.3       1 UNK        -0.5850 
      3 C3          3.6320   -1.7672    0.1256 C.ar      1 UNK        -0.1150 
      4 C4          1.1959   -1.7959    0.1795 C.ar      1 UNK        -0.1150 
      5 C5          3.6539   -3.1755    0.0503 C.ar      1 UNK        -0.1150 
      6 C6          1.2047   -3.2045    0.1044 C.ar      1 UNK        -0.1150 
      7 C7          2.4369   -3.8976    0.0395 C.ar      1 UNK         0.1800 
      8 C8          4.9868   -3.8984   -0.0185 C.3       1 UNK        -0.0650 
      9 C9         -0.1122   -3.9594    0.0942 C.3       1 UNK        -0.0650 
     10 Cl10        2.4554   -5.6270   -0.0528 Cl        1 UNK        -0.1800 
     11 H11         1.5246    0.6479    0.3020 H         1 UNK         0.4350 
     12 H12         4.5572   -1.2092    0.1343 H         1 UNK         0.1150 
     13 H13         0.2571   -1.2635    0.2292 H         1 UNK         0.1150 
     14 H14         5.8222   -3.1979   -0.0002 H         1 UNK         0.0600 
     15 H15         5.0969   -4.5749    0.8295 H         1 UNK         0.0600 
     16 H16         5.0567   -4.4810   -0.9374 H         1 UNK         0.0600 
     17 H17        -0.1682   -4.6380    0.9458 H         1 UNK         0.0600 
     18 H18        -0.9628   -3.2796    0.1497 H         1 UNK         0.0600 
     19 H19        -0.2084   -4.5441   -0.8211 H         1 UNK         0.0600 
@<TRIPOS>BOND
     1    1    2 1    
     2    1    3 ar   
     3    1    4 ar   
     4    2   11 1    
     5    3    5 ar   
     6    3   12 1    
     7    4    6 ar   
     8    4   13 1    
     9    5    7 ar   
    10    5    8 1    
    11    6    7 ar   
    12    6    9 1    
    13    7   10 1    
    14    8   14 1    
    15    8   15 1    
    16    8   16 1    
    17    9   17 1    
    18    9   18 1    
    19    9   19 1    
@<TRIPOS>SUBSTRUCTURE
     1 UNK         1 GROUP             0       ****    0 ROOT    
