@<TRIPOS>MOLECULE
title: molecule 1
20   19    1
SMALL
USER_CHARGES


@<TRIPOS>ATOM
      1 C1          0.3431    1.1798    0.3156 C.2       1 UNK         0.5200 
      2 C2         -0.1072   -0.2911    0.2994 C.3       1 UNK        -0.0600 
      3 O3          0.3274    1.9064   -0.6762 O.2       1 UNK        -0.4400 
      4 O4          0.7691    1.5658    1.5528 O.3       1 UNK        -0.5300 
      5 C5         -1.2967   -0.4811   -0.6722 C.3       1 UNK        -0.1200 
      6 C6          1.0706   -1.2375   -0.0406 C.3       1 UNK        -0.1200 
      7 C7         -2.0915   -1.7741   -0.4385 C.3       1 UNK        -0.1800 
      8 C8          2.2161   -1.2426    0.9845 C.3       1 UNK        -0.1800 
      9 H9         -0.4615   -0.5278    1.3041 H         1 UNK         0.0600 
     10 H10         1.0519    2.4670    1.5664 H         1 UNK         0.4500 
     11 H11        -1.9914    0.3549   -0.5730 H         1 UNK         0.0600 
     12 H12        -0.9433   -0.4554   -1.7041 H         1 UNK         0.0600 
     13 H13         0.7009   -2.2590   -0.1217 H         1 UNK         0.0600 
     14 H14         1.4711   -0.9902   -1.0248 H         1 UNK         0.0600 
     15 H15        -2.9489   -1.8242   -1.1099 H         1 UNK         0.0600 
     16 H16        -1.4861   -2.6618   -0.6185 H         1 UNK         0.0600 
     17 H17        -2.4695   -1.8256    0.5829 H         1 UNK         0.0600 
     18 H18         2.9600   -1.9962    0.7253 H         1 UNK         0.0600 
     19 H19         2.7296   -0.2821    1.0251 H         1 UNK         0.0600 
     20 H20         1.8480   -1.4717    1.9849 H         1 UNK         0.0600 
@<TRIPOS>BOND
     1    1    2 1    
     2    1    3 2    
     3    1    4 1    
     4    2    5 1    
     5    2    6 1    
     6    2    9 1    
     7    4   10 1    
     8    5    7 1    
     9    5   11 1    
    10    5   12 1    
    11    6    8 1    
    12    6   13 1    
    13    6   14 1    
    14    7   15 1    
    15    7   16 1    
    16    7   17 1    
    17    8   18 1    
    18    8   19 1    
    19    8   20 1    
@<TRIPOS>SUBSTRUCTURE
     1 UNK         1 GROUP             0       ****    0 ROOT    
