@<TRIPOS>MOLECULE
title: molecule 1
18   18    1
SMALL
USER_CHARGES


@<TRIPOS>ATOM
      1 O1          5.5624   -5.7341    0.1227 O.3       1 UNK        -0.5850 
      2 C2          4.8863   -4.5493    0.1389 C.ar      1 UNK         0.1500 
      3 C3          3.4827   -4.5409    0.0404 C.ar      1 UNK        -0.1150 
      4 C4          5.5882   -3.3366    0.2501 C.ar      1 UNK        -0.1150 
      5 C5          2.7591   -3.3251    0.0512 C.ar      1 UNK         0.1500 
      6 C6          4.8818   -2.1210    0.2720 C.ar      1 UNK        -0.1150 
      7 C7          1.2374   -3.3675   -0.0924 C.3       1 UNK         0.4500 
      8 C8          3.4718   -2.1005    0.1848 C.ar      1 UNK         0.0900 
      9 F9          0.8255   -4.5549   -0.5386 F         1 UNK        -0.2000 
     10 F10         0.6654   -3.1541    1.0919 F         1 UNK        -0.2000 
     11 F11         0.8119   -2.4491   -0.9603 F         1 UNK        -0.2000 
     12 N12         2.7896   -0.7986    0.2350 N.pl3     1 UNK         0.6500 
     13 O13         1.8756   -0.6518    1.0382 O.co2     1 UNK        -0.3700 
     14 O14         3.2024    0.0844   -0.5089 O.co2     1 UNK        -0.3700 
     15 H15         6.4993   -5.6321    0.1928 H         1 UNK         0.4350 
     16 H16         2.9643   -5.4842   -0.0486 H         1 UNK         0.1150 
     17 H17         6.6660   -3.3328    0.3234 H         1 UNK         0.1150 
     18 H18         5.4292   -1.1943    0.3669 H         1 UNK         0.1150 
@<TRIPOS>BOND
     1    1    2 1    
     2    1   15 1    
     3    2    3 ar   
     4    2    4 ar   
     5    3    5 ar   
     6    3   16 1    
     7    4    6 ar   
     8    4   17 1    
     9    5    7 1    
    10    5    8 ar   
    11    6    8 ar   
    12    6   18 1    
    13    7    9 1    
    14    7   10 1    
    15    7   11 1    
    16    8   12 1    
    17   12   13 1    
    18   12   14 2    
@<TRIPOS>SUBSTRUCTURE
     1 UNK         1 GROUP             0       ****    0 ROOT    
