@<TRIPOS>MOLECULE
title: molecule 1
22   22    1
SMALL
USER_CHARGES


@<TRIPOS>ATOM
      1 C1         -0.5256    1.7269   -0.4376 C.3       1 UNK        -0.1800 
      2 C2          0.7144    2.4215    0.1506 C.3       1 UNK         0.0550 
      3 C3          0.4803    2.9251    1.5851 C.3       1 UNK        -0.1800 
      4 C4          1.9815    1.5726    0.0233 C.ar      1 UNK        -0.1150 
      5 C5          3.0365    2.0529   -0.7859 C.ar      1 UNK        -0.1150 
      6 C6          2.1391    0.3255    0.6837 C.ar      1 UNK         0.1500 
      7 C7          4.2240    1.3123   -0.9377 C.ar      1 UNK        -0.1150 
      8 C8          3.3300   -0.4121    0.5284 C.ar      1 UNK        -0.1150 
      9 O9          1.1592   -0.1945    1.4791 O.3       1 UNK        -0.5850 
     10 C10         4.3715    0.0782   -0.2800 C.ar      1 UNK        -0.1150 
     11 H11        -0.3573    1.4464   -1.4779 H         1 UNK         0.0600 
     12 H12        -0.7973    0.8248    0.1087 H         1 UNK         0.0600 
     13 H13        -1.3897    2.3915   -0.4151 H         1 UNK         0.0600 
     14 H14         0.8691    3.3151   -0.4557 H         1 UNK         0.0600 
     15 H15         1.3473    3.4769    1.9498 H         1 UNK         0.0600 
     16 H16        -0.3754    3.5997    1.6245 H         1 UNK         0.0600 
     17 H17         0.2853    2.1143    2.2855 H         1 UNK         0.0600 
     18 H18         2.9425    2.9985   -1.2993 H         1 UNK         0.1150 
     19 H19         5.0217    1.6918   -1.5592 H         1 UNK         0.1150 
     20 H20         3.4463   -1.3605    1.0324 H         1 UNK         0.1150 
     21 H21         0.3971    0.3614    1.5288 H         1 UNK         0.4350 
     22 H22         5.2817   -0.4917   -0.3951 H         1 UNK         0.1150 
@<TRIPOS>BOND
     1    1    2 1    
     2    1   11 1    
     3    1   12 1    
     4    1   13 1    
     5    2    3 1    
     6    2    4 1    
     7    2   14 1    
     8    3   15 1    
     9    3   16 1    
    10    3   17 1    
    11    4    5 ar   
    12    4    6 ar   
    13    5    7 ar   
    14    5   18 1    
    15    6    8 ar   
    16    6    9 1    
    17    7   10 ar   
    18    7   19 1    
    19    8   10 ar   
    20    8   20 1    
    21    9   21 1    
    22   10   22 1    
@<TRIPOS>SUBSTRUCTURE
     1 UNK         1 GROUP             0       ****    0 ROOT    
