@<TRIPOS>MOLECULE
title: molecule 1
16   16    1
SMALL
USER_CHARGES


@<TRIPOS>ATOM
      1 N1          4.3295   -2.2417    0.1067 N.pl3     1 UNK         0.6500 
      2 O2          4.8582   -3.1754    0.7013 O.co2     1 UNK        -0.3700 
      3 O3          4.9590   -1.3778   -0.4958 O.co2     1 UNK        -0.3700 
      4 C4          2.8532   -2.1853    0.0976 C.ar      1 UNK         0.0900 
      5 C5          2.1282   -3.3987    0.0429 C.ar      1 UNK        -0.1150 
      6 C6          2.1332   -0.9584    0.1502 C.ar      1 UNK         0.1800 
      7 C7          0.7210   -3.4014    0.0291 C.ar      1 UNK        -0.1150 
      8 C8          0.7227   -0.9703    0.1358 C.ar      1 UNK        -0.1150 
      9 N9          2.7713    0.2813    0.2363 N.pl3     1 UNK        -0.9000 
     10 C10         0.0172   -2.1856    0.0738 C.ar      1 UNK        -0.1150 
     11 H11         2.6532   -4.3421    0.0041 H         1 UNK         0.1150 
     12 H12         0.1824   -4.3366   -0.0164 H         1 UNK         0.1150 
     13 H13         0.1715   -0.0419    0.1773 H         1 UNK         0.1150 
     14 H14         3.7668    0.3479    0.0727 H         1 UNK         0.3600 
     15 H15         2.2447    1.1352    0.1195 H         1 UNK         0.3600 
     16 H16        -1.0628   -2.1846    0.0641 H         1 UNK         0.1150 
@<TRIPOS>BOND
     1    1    2 2    
     2    1    3 1    
     3    1    4 1    
     4    4    5 ar   
     5    4    6 ar   
     6    5    7 ar   
     7    5   11 1    
     8    6    8 ar   
     9    6    9 1    
    10    7   10 ar   
    11    7   12 1    
    12    8   10 ar   
    13    8   13 1    
    14    9   14 1    
    15    9   15 1    
    16   10   16 1    
@<TRIPOS>SUBSTRUCTURE
     1 UNK         1 GROUP             0       ****    0 ROOT    
