@<TRIPOS>MOLECULE
title: molecule 1
17   17    1
SMALL
USER_CHARGES


@<TRIPOS>ATOM
      1 N1          4.3155   -2.2535   -0.0543 N.pl3     1 UNK         0.6500 
      2 O2          4.8867   -3.1164    0.6042 O.co2     1 UNK        -0.3700 
      3 O3          4.8931   -1.4612   -0.7909 O.co2     1 UNK        -0.3700 
      4 C4          2.8444   -2.2000    0.0239 C.ar      1 UNK         0.0900 
      5 C5          2.1198   -3.4136    0.0055 C.ar      1 UNK        -0.1150 
      6 C6          2.1341   -0.9716    0.1224 C.ar      1 UNK        -0.1150 
      7 C7          0.7142   -3.4158    0.0670 C.ar      1 UNK        -0.1150 
      8 C8          0.7234   -0.9842    0.1803 C.ar      1 UNK        -0.1150 
      9 C9          2.8467    0.3693    0.1902 C.3       1 UNK        -0.0650 
     10 C10         0.0150   -2.1993    0.1513 C.ar      1 UNK        -0.1150 
     11 H11         2.6448   -4.3553   -0.0649 H         1 UNK         0.1150 
     12 H12         0.1732   -4.3504    0.0476 H         1 UNK         0.1150 
     13 H13         0.1746   -0.0566    0.2532 H         1 UNK         0.1150 
     14 H14         3.6791    0.3320    0.8935 H         1 UNK         0.0600 
     15 H15         3.2310    0.6459   -0.7918 H         1 UNK         0.0600 
     16 H16         2.1726    1.1599    0.5211 H         1 UNK         0.0600 
     17 H17        -1.0642   -2.1976    0.1980 H         1 UNK         0.1150 
@<TRIPOS>BOND
     1    1    2 2    
     2    1    3 1    
     3    1    4 1    
     4    4    5 ar   
     5    4    6 ar   
     6    5    7 ar   
     7    5   11 1    
     8    6    8 ar   
     9    6    9 1    
    10    7   10 ar   
    11    7   12 1    
    12    8   10 ar   
    13    8   13 1    
    14    9   14 1    
    15    9   15 1    
    16    9   16 1    
    17   10   17 1    
@<TRIPOS>SUBSTRUCTURE
     1 UNK         1 GROUP             0       ****    0 ROOT    
