@<TRIPOS>MOLECULE
title: molecule 1
17   17    1
SMALL
USER_CHARGES


@<TRIPOS>ATOM
      1 C1         -0.7808    1.3936    0.1580 C.ar      1 UNK        -0.1150 
      2 C2         -0.6884   -0.0224    0.0612 C.ar      1 UNK         0.0900 
      3 C3          0.3968    2.1723    0.1421 C.ar      1 UNK        -0.1150 
      4 C4         -2.1154    2.1070    0.3012 C.3       1 UNK        -0.0650 
      5 C5          0.5874   -0.6238   -0.0297 C.ar      1 UNK        -0.1150 
      6 N6         -1.8800   -0.8898    0.0584 N.pl3     1 UNK         0.6500 
      7 C7          1.6597    1.5609    0.0415 C.ar      1 UNK        -0.1150 
      8 C8          1.7553    0.1607   -0.0415 C.ar      1 UNK         0.1800 
      9 O9         -2.8434   -0.5605   -0.6251 O.co2     1 UNK        -0.3700 
     10 O10        -1.8316   -1.9203    0.7216 O.co2     1 UNK        -0.3700 
     11 Cl11        3.3020   -0.5944   -0.1601 Cl        1 UNK        -0.1800 
     12 H12         0.3372    3.2487    0.2131 H         1 UNK         0.1150 
     13 H13        -1.9798    3.1412    0.6192 H         1 UNK         0.0600 
     14 H14        -2.6459    2.1163   -0.6511 H         1 UNK         0.0600 
     15 H15        -2.7417    1.6143    1.0454 H         1 UNK         0.0600 
     16 H16         0.6730   -1.6986   -0.0997 H         1 UNK         0.1150 
     17 H17         2.5537    2.1670    0.0323 H         1 UNK         0.1150 
@<TRIPOS>BOND
     1    1    2 ar   
     2    1    3 ar   
     3    1    4 1    
     4    2    5 ar   
     5    2    6 1    
     6    3    7 ar   
     7    3   12 1    
     8    4   13 1    
     9    4   14 1    
    10    4   15 1    
    11    5    8 ar   
    12    5   16 1    
    13    6    9 2    
    14    6   10 1    
    15    7    8 ar   
    16    7   17 1    
    17    8   11 1    
@<TRIPOS>SUBSTRUCTURE
     1 UNK         1 GROUP             0       ****    0 ROOT    
