@<TRIPOS>MOLECULE
title: molecule 1
14   14    1
SMALL
USER_CHARGES


@<TRIPOS>ATOM
      1 N1          0.5377   -2.1559    0.0963 N.pl3     1 UNK         0.6500 
      2 O2         -0.0099   -1.3311    0.8200 O.co2     1 UNK        -0.3700 
      3 O3         -0.0628   -2.9205   -0.6507 O.co2     1 UNK        -0.3700 
      4 C4          2.0093   -2.1907    0.1003 C.ar      1 UNK         0.0900 
      5 C5          2.7213   -0.9714    0.0524 C.ar      1 UNK        -0.1150 
      6 C6          2.7331   -3.4096    0.1574 C.ar      1 UNK         0.1800 
      7 C7          4.1291   -0.9556    0.0454 C.ar      1 UNK         0.1800 
      8 C8          4.1421   -3.3900    0.1492 C.ar      1 UNK        -0.1150 
      9 Cl9         1.9408   -4.9428    0.2732 Cl        1 UNK        -0.1800 
     10 Cl10        4.9564    0.5597   -0.0212 Cl        1 UNK        -0.1800 
     11 C11         4.8434   -2.1710    0.0915 C.ar      1 UNK         0.1800 
     12 Cl12        6.5711   -2.1885    0.0843 Cl        1 UNK        -0.1800 
     13 H13         2.1824   -0.0358    0.0127 H         1 UNK         0.1150 
     14 H14         4.6904   -4.3197    0.1943 H         1 UNK         0.1150 
@<TRIPOS>BOND
     1    1    2 2    
     2    1    3 1    
     3    1    4 1    
     4    4    5 ar   
     5    4    6 ar   
     6    5    7 ar   
     7    5   13 1    
     8    6    8 ar   
     9    6    9 1    
    10    7   10 1    
    11    7   11 ar   
    12    8   11 ar   
    13    8   14 1    
    14   11   12 1    
@<TRIPOS>SUBSTRUCTURE
     1 UNK         1 GROUP             0       ****    0 ROOT    
