@<TRIPOS>MOLECULE
title: molecule 1
14   14    1
SMALL
USER_CHARGES


@<TRIPOS>ATOM
      1 O1         -0.0786   -3.2897    0.1142 O.2       1 UNK        -0.4500 
      2 C2          0.5903   -2.2570    0.1054 C.2       1 UNK         0.5650 
      3 C3          2.0753   -2.2211    0.1023 C.ar      1 UNK        -0.1150 
      4 C4          2.7903   -0.9951    0.0920 C.ar      1 UNK         0.1800 
      5 C5          2.7945   -3.4390    0.1097 C.ar      1 UNK        -0.1150 
      6 C6          4.2001   -1.0052    0.0893 C.ar      1 UNK        -0.1150 
      7 Cl7         1.9874    0.5387    0.0825 Cl        1 UNK        -0.1800 
      8 C8          4.2022   -3.4399    0.1070 C.ar      1 UNK        -0.1150 
      9 C9          4.9060   -2.2224    0.0968 C.ar      1 UNK        -0.1150 
     10 H10         0.1038   -1.2826    0.0993 H         1 UNK         0.0000 
     11 H11         2.2730   -4.3856    0.1176 H         1 UNK         0.1150 
     12 H12         4.7448   -0.0725    0.0815 H         1 UNK         0.1150 
     13 H13         4.7417   -4.3757    0.1127 H         1 UNK         0.1150 
     14 H14         5.9861   -2.2216    0.0947 H         1 UNK         0.1150 
@<TRIPOS>BOND
     1    1    2 2    
     2    2    3 1    
     3    2   10 1    
     4    3    4 ar   
     5    3    5 ar   
     6    4    6 ar   
     7    4    7 1    
     8    5    8 ar   
     9    5   11 1    
    10    6    9 ar   
    11    6   12 1    
    12    8    9 ar   
    13    8   13 1    
    14    9   14 1    
@<TRIPOS>SUBSTRUCTURE
     1 UNK         1 GROUP             0       ****    0 ROOT    
