@<TRIPOS>MOLECULE
title: molecule 1
25   25    1
SMALL
USER_CHARGES


@<TRIPOS>ATOM
      1 C1          4.6565    2.9241   -0.9549 C.3       1 UNK         0.1450 
      2 C2          4.3155    1.9346    0.1774 C.3       1 UNK         0.0550 
      3 O3          5.9294    3.5027   -0.7523 O.3       1 UNK        -0.6830 
      4 C4          5.2311    0.6893    0.1603 C.3       1 UNK        -0.1200 
      5 C5          2.8369    1.5607    0.1437 C.ar      1 UNK        -0.1150 
      6 C6          4.9729   -0.2888    1.3160 C.3       1 UNK        -0.1800 
      7 C7          2.2940    0.8754   -0.9662 C.ar      1 UNK        -0.1150 
      8 C8          1.9962    1.8978    1.2271 C.ar      1 UNK        -0.1150 
      9 C9          0.9286    0.5311   -0.9912 C.ar      1 UNK        -0.1150 
     10 C10         0.6307    1.5532    1.2016 C.ar      1 UNK        -0.1150 
     11 C11         0.0964    0.8698    0.0927 C.ar      1 UNK        -0.1150 
     12 H12         4.6245    2.4376   -1.9303 H         1 UNK         0.0600 
     13 H13         3.9269    3.7346   -0.9757 H         1 UNK         0.0600 
     14 H14         4.4917    2.4540    1.1210 H         1 UNK         0.0600 
     15 H15         6.0975    4.1148   -1.4526 H         1 UNK         0.4180 
     16 H16         5.1210    0.1590   -0.7860 H         1 UNK         0.0600 
     17 H17         6.2734    1.0062    0.2056 H         1 UNK         0.0600 
     18 H18         5.6800   -1.1178    1.2850 H         1 UNK         0.0600 
     19 H19         5.0836    0.2057    2.2814 H         1 UNK         0.0600 
     20 H20         3.9695   -0.7125    1.2685 H         1 UNK         0.0600 
     21 H21         2.9230    0.6092   -1.8028 H         1 UNK         0.1150 
     22 H22         2.3940    2.4210    2.0843 H         1 UNK         0.1150 
     23 H23         0.5198    0.0065   -1.8422 H         1 UNK         0.1150 
     24 H24        -0.0069    1.8131    2.0337 H         1 UNK         0.1150 
     25 H25        -0.9507    0.6055    0.0737 H         1 UNK         0.1150 
@<TRIPOS>BOND
     1    1    2 1    
     2    1    3 1    
     3    1   12 1    
     4    1   13 1    
     5    2    4 1    
     6    2    5 1    
     7    2   14 1    
     8    3   15 1    
     9    4    6 1    
    10    4   16 1    
    11    4   17 1    
    12    5    7 ar   
    13    5    8 ar   
    14    6   18 1    
    15    6   19 1    
    16    6   20 1    
    17    7    9 ar   
    18    7   21 1    
    19    8   10 ar   
    20    8   22 1    
    21    9   11 ar   
    22    9   23 1    
    23   10   11 ar   
    24   10   24 1    
    25   11   25 1    
@<TRIPOS>SUBSTRUCTURE
     1 UNK         1 GROUP             0       ****    0 ROOT    
