@<TRIPOS>MOLECULE
title: molecule 1
17   17    1
SMALL
USER_CHARGES


@<TRIPOS>ATOM
      1 C1          4.1985   -0.9497    0.1119 C.ar      1 UNK        -0.1150 
      2 C2          4.9376   -2.1467    0.1248 C.ar      1 UNK        -0.1150 
      3 C3          2.7906   -0.9900    0.0925 C.ar      1 UNK         0.1500 
      4 C4          4.2667   -3.3834    0.1182 C.ar      1 UNK        -0.1150 
      5 C5          2.1038   -2.2243    0.0857 C.ar      1 UNK         0.0850 
      6 O6          2.0856    0.1783    0.0801 O.3       1 UNK        -0.5850 
      7 C7          2.8589   -3.4250    0.0988 C.ar      1 UNK        -0.1150 
      8 O8          0.7247   -2.1807    0.0665 O.3       1 UNK        -0.2850 
      9 C9          0.0155   -3.4111    0.0594 C.3       1 UNK         0.1100 
     10 H10         4.7130    0.0001    0.1169 H         1 UNK         0.1150 
     11 H11         6.0172   -2.1161    0.1396 H         1 UNK         0.1150 
     12 H12         4.8329   -4.3032    0.1281 H         1 UNK         0.1150 
     13 H13         1.1524    0.0268    0.0676 H         1 UNK         0.4350 
     14 H14         2.3816   -4.3930    0.0943 H         1 UNK         0.1150 
     15 H15        -1.0553   -3.2087    0.0441 H         1 UNK         0.0300 
     16 H16         0.2515   -4.0024   -0.8263 H         1 UNK         0.0300 
     17 H17         0.2268   -3.9985    0.9539 H         1 UNK         0.0300 
@<TRIPOS>BOND
     1    1    2 ar   
     2    1    3 ar   
     3    1   10 1    
     4    2    4 ar   
     5    2   11 1    
     6    3    5 ar   
     7    3    6 1    
     8    4    7 ar   
     9    4   12 1    
    10    5    7 ar   
    11    5    8 1    
    12    6   13 1    
    13    7   14 1    
    14    8    9 1    
    15    9   15 1    
    16    9   16 1    
    17    9   17 1    
@<TRIPOS>SUBSTRUCTURE
     1 UNK         1 GROUP             0       ****    0 ROOT    
