@<TRIPOS>MOLECULE
title: molecule 1
18   19    1
SMALL
USER_CHARGES


@<TRIPOS>ATOM
      1 C1         -0.6047    1.8304    0.1017 C.ar      1 UNK        -0.1150 
      2 C2         -0.6133    0.4237    0.0985 C.ar      1 UNK        -0.1150 
      3 C3          0.6170    2.5308    0.1009 C.ar      1 UNK        -0.1150 
      4 C4          0.6018   -0.2857    0.0944 C.ar      1 UNK        -0.1150 
      5 C5          1.8458    1.8305    0.0968 C.ar      1 UNK         0.0000 
      6 C6          1.8289    0.4097    0.0935 C.ar      1 UNK         0.0000 
      7 C7          3.0897    2.5106    0.0958 C.ar      1 UNK         0.1000 
      8 C8          3.0390   -0.3135    0.0894 C.ar      1 UNK        -0.1150 
      9 C9          4.2918    1.7752    0.0917 C.ar      1 UNK        -0.1150 
     10 I10         3.2261    4.6033    0.1004 I         1 UNK        -0.1000 
     11 C11         4.2689    0.3687    0.0885 C.ar      1 UNK        -0.1150 
     12 H12        -1.5376    2.3748    0.1049 H         1 UNK         0.1150 
     13 H13        -1.5516   -0.1113    0.0992 H         1 UNK         0.1150 
     14 H14         0.5868    3.6092    0.1034 H         1 UNK         0.1150 
     15 H15         0.5868   -1.3660    0.0920 H         1 UNK         0.1150 
     16 H16         3.0296   -1.3939    0.0870 H         1 UNK         0.1150 
     17 H17         5.2389    2.2943    0.0910 H         1 UNK         0.1150 
     18 H18         5.1951   -0.1869    0.0854 H         1 UNK         0.1150 
@<TRIPOS>BOND
     1    1    2 ar   
     2    1    3 ar   
     3    1   12 1    
     4    2    4 ar   
     5    2   13 1    
     6    3    5 ar   
     7    3   14 1    
     8    4    6 ar   
     9    4   15 1    
    10    5    6 ar   
    11    5    7 ar   
    12    6    8 ar   
    13    7    9 ar   
    14    7   10 1    
    15    8   11 ar   
    16    8   16 1    
    17    9   11 ar   
    18    9   17 1    
    19   11   18 1    
@<TRIPOS>SUBSTRUCTURE
     1 UNK         1 GROUP             0       ****    0 ROOT    
