@<TRIPOS>MOLECULE
title: molecule 1
18   19    1
SMALL
USER_CHARGES


@<TRIPOS>ATOM
      1 C1          3.1053    2.4911    0.0942 C.ar      1 UNK         0.2000 
      2 Br2         3.1913    4.3967    0.1061 Br        1 UNK        -0.2000 
      3 C3          1.8681    1.8002    0.0997 C.ar      1 UNK         0.0000 
      4 C4          4.3142    1.7674    0.0797 C.ar      1 UNK        -0.1150 
      5 C5          1.8629    0.3798    0.0903 C.ar      1 UNK         0.0000 
      6 C6          0.6349    2.4923    0.1142 C.ar      1 UNK        -0.1150 
      7 C7          4.3034    0.3606    0.0705 C.ar      1 UNK        -0.1150 
      8 C8          3.0794   -0.3327    0.0758 C.ar      1 UNK        -0.1150 
      9 C9          0.6411   -0.3248    0.0955 C.ar      1 UNK        -0.1150 
     10 C10        -0.5815    1.7827    0.1193 C.ar      1 UNK        -0.1150 
     11 C11        -0.5793    0.3758    0.1100 C.ar      1 UNK        -0.1150 
     12 H12         5.2563    2.2956    0.0756 H         1 UNK         0.1150 
     13 H13         0.6001    3.5710    0.1216 H         1 UNK         0.1150 
     14 H14         5.2345   -0.1868    0.0594 H         1 UNK         0.1150 
     15 H15         3.0795   -1.4132    0.0687 H         1 UNK         0.1150 
     16 H16         0.6339   -1.4052    0.0884 H         1 UNK         0.1150 
     17 H17        -1.5184    2.3199    0.1304 H         1 UNK         0.1150 
     18 H18        -1.5135   -0.1662    0.1139 H         1 UNK         0.1150 
@<TRIPOS>BOND
     1    1    2 1    
     2    1    3 ar   
     3    1    4 ar   
     4    3    5 ar   
     5    3    6 ar   
     6    4    7 ar   
     7    4   12 1    
     8    5    8 ar   
     9    5    9 ar   
    10    6   10 ar   
    11    6   13 1    
    12    7    8 ar   
    13    7   14 1    
    14    8   15 1    
    15    9   11 ar   
    16    9   16 1    
    17   10   11 ar   
    18   10   17 1    
    19   11   18 1    
@<TRIPOS>SUBSTRUCTURE
     1 UNK         1 GROUP             0       ****    0 ROOT    
