@<TRIPOS>MOLECULE
title: molecule 1
23   24    1
SMALL
USER_CHARGES


@<TRIPOS>ATOM
      1 O1          2.6036    0.1442   -0.6557 O.3       1 UNK        -0.5850 
      2 C2          1.9666   -0.9919   -0.2424 C.ar      1 UNK         0.1500 
      3 C3          2.7015   -2.1408    0.1494 C.ar      1 UNK         0.0000 
      4 C4          0.5568   -1.0055   -0.2289 C.ar      1 UNK        -0.1150 
      5 C5          1.9852   -3.2944    0.5424 C.ar      1 UNK        -0.1150 
      6 C6          4.1777   -2.1706    0.1554 C.ar      1 UNK         0.0000 
      7 C7         -0.1385   -2.1611    0.1704 C.ar      1 UNK        -0.1150 
      8 C8          0.5776   -3.3079    0.5552 C.ar      1 UNK        -0.1150 
      9 C9          4.9259   -1.1920    0.8487 C.ar      1 UNK        -0.1150 
     10 C10         4.8756   -3.1958   -0.5222 C.ar      1 UNK        -0.1150 
     11 C11         6.3338   -1.2307    0.8588 C.ar      1 UNK        -0.1150 
     12 C12         6.2835   -3.2391   -0.5152 C.ar      1 UNK        -0.1150 
     13 C13         7.0144   -2.2551    0.1754 C.ar      1 UNK        -0.1150 
     14 H14         2.0093    0.8359   -0.9025 H         1 UNK         0.4350 
     15 H15         0.0018   -0.1288   -0.5291 H         1 UNK         0.1150 
     16 H16         2.5209   -4.1823    0.8454 H         1 UNK         0.1150 
     17 H17        -1.2186   -2.1682    0.1789 H         1 UNK         0.1150 
     18 H18         0.0484   -4.1983    0.8616 H         1 UNK         0.1150 
     19 H19         4.4159   -0.4025    1.3812 H         1 UNK         0.1150 
     20 H20         4.3275   -3.9569   -1.0582 H         1 UNK         0.1150 
     21 H21         6.8907   -0.4745    1.3921 H         1 UNK         0.1150 
     22 H22         6.8019   -4.0278   -1.0403 H         1 UNK         0.1150 
     23 H23         8.0940   -2.2866    0.1820 H         1 UNK         0.1150 
@<TRIPOS>BOND
     1    1    2 1    
     2    1   14 1    
     3    2    3 ar   
     4    2    4 ar   
     5    3    5 ar   
     6    3    6 1    
     7    4    7 ar   
     8    4   15 1    
     9    5    8 ar   
    10    5   16 1    
    11    6    9 ar   
    12    6   10 ar   
    13    7    8 ar   
    14    7   17 1    
    15    8   18 1    
    16    9   11 ar   
    17    9   19 1    
    18   10   12 ar   
    19   10   20 1    
    20   11   13 ar   
    21   11   21 1    
    22   12   13 ar   
    23   12   22 1    
    24   13   23 1    
@<TRIPOS>SUBSTRUCTURE
     1 UNK         1 GROUP             0       ****    0 ROOT    
