@<TRIPOS>MOLECULE
title: molecule 1
21   21    1
SMALL
USER_CHARGES


@<TRIPOS>ATOM
      1 C1          0.1023    0.7189    0.1092 C.ar      1 UNK         0.1500 
      2 C2         -1.1265    0.0203    0.0994 C.ar      1 UNK         0.0850 
      3 C3          1.3379    0.0344    0.1045 C.ar      1 UNK         0.0850 
      4 O4          0.1041    2.0850    0.1235 O.3       1 UNK        -0.5850 
      5 C5         -1.1049   -1.3962    0.0846 C.ar      1 UNK        -0.1150 
      6 O6         -2.2860    0.7689    0.1049 O.3       1 UNK        -0.2850 
      7 C7          1.3350   -1.3818    0.0897 C.ar      1 UNK        -0.1150 
      8 O8          2.4855    0.8013    0.1149 O.3       1 UNK        -0.2850 
      9 C9          0.1193   -2.0886    0.0798 C.ar      1 UNK        -0.1150 
     10 C10        -3.5297    0.0836    0.0952 C.3       1 UNK         0.1100 
     11 C11         3.7389    0.1337    0.1104 C.3       1 UNK         0.1100 
     12 H12         0.9817    2.4360    0.1289 H         1 UNK         0.4350 
     13 H13        -2.0147   -1.9766    0.0767 H         1 UNK         0.1150 
     14 H14         2.2522   -1.9506    0.0856 H         1 UNK         0.1150 
     15 H15         0.1256   -3.1686    0.0686 H         1 UNK         0.1150 
     16 H16        -4.3408    0.8115    0.1012 H         1 UNK         0.0300 
     17 H17        -3.6419   -0.5269   -0.8018 H         1 UNK         0.0300 
     18 H18        -3.6455   -0.5455    0.9788 H         1 UNK         0.0300 
     19 H19         4.5398    0.8729    0.1198 H         1 UNK         0.0300 
     20 H20         3.8599   -0.4939    0.9944 H         1 UNK         0.0300 
     21 H21         3.8635   -0.4752   -0.7860 H         1 UNK         0.0300 
@<TRIPOS>BOND
     1    1    2 ar   
     2    1    3 ar   
     3    1    4 1    
     4    2    5 ar   
     5    2    6 1    
     6    3    7 ar   
     7    3    8 1    
     8    4   12 1    
     9    5    9 ar   
    10    5   13 1    
    11    6   10 1    
    12    7    9 ar   
    13    7   14 1    
    14    8   11 1    
    15    9   15 1    
    16   10   16 1    
    17   10   17 1    
    18   10   18 1    
    19   11   19 1    
    20   11   20 1    
    21   11   21 1    
@<TRIPOS>SUBSTRUCTURE
     1 UNK         1 GROUP             0       ****    0 ROOT    
