@<TRIPOS>MOLECULE
title: molecule 1
16   17    1
SMALL
USER_CHARGES


@<TRIPOS>ATOM
      1 C1          1.9556    1.8348    0.1175 C.ar      1 UNK         0.4087 
      2 C2          1.9497    0.4063    0.0678 C.ar      1 UNK         0.4086 
      3 N3          3.1216    2.5237    0.1356 N.ar      1 UNK        -0.5226 
      4 C4          0.7264    2.5269    0.1476 C.ar      1 UNK        -0.3245 
      5 C5          0.7148   -0.2760    0.0502 C.ar      1 UNK        -0.3245 
      6 N6          3.1099   -0.2918    0.0377 N.ar      1 UNK        -0.5225 
      7 C7          4.2691    1.8145    0.1053 C.ar      1 UNK         0.1442 
      8 C8         -0.4970    1.8325    0.1296 C.ar      1 UNK        -0.1399 
      9 C9         -0.5028    0.4281    0.0807 C.ar      1 UNK        -0.1399 
     10 C10         4.2633    0.4083    0.0564 C.ar      1 UNK         0.1442 
     11 H11         0.7226    3.6065    0.1852 H         1 UNK         0.1858 
     12 H12         0.7020   -1.3556    0.0127 H         1 UNK         0.1858 
     13 H13         5.1946    2.3710    0.1200 H         1 UNK         0.0868 
     14 H14        -1.4295    2.3773    0.1531 H         1 UNK         0.1615 
     15 H15        -1.4398   -0.1093    0.0667 H         1 UNK         0.1615 
     16 H16         5.1841   -0.1556    0.0322 H         1 UNK         0.0868 
@<TRIPOS>BOND
     1    1    2 ar   
     2    1    3 ar   
     3    1    4 ar   
     4    2    5 ar   
     5    2    6 ar   
     6    3    7 ar   
     7    4    8 ar   
     8    4   11 1    
     9    5    9 ar   
    10    5   12 1    
    11    6   10 ar   
    12    7   10 ar   
    13    7   13 1    
    14    8    9 ar   
    15    8   14 1    
    16    9   15 1    
    17   10   16 1    
@<TRIPOS>SUBSTRUCTURE
     1 UNK         1 GROUP             0       ****    0 ROOT    
