@<TRIPOS>MOLECULE
title: molecule 1
18   18    1
SMALL
USER_CHARGES


@<TRIPOS>ATOM
      1 C1          2.0262    0.2802    0.1827 C.3       1 UNK         0.1100 
      2 O2          2.7643   -0.9329    0.1598 O.3       1 UNK        -0.2850 
      3 C3          2.0753   -2.1283    0.1018 C.ar      1 UNK         0.0850 
      4 C4          2.8221   -3.3374    0.0718 C.ar      1 UNK         0.0900 
      5 C5          0.6575   -2.1984    0.0901 C.ar      1 UNK        -0.1150 
      6 C6          2.1442   -4.5779    0.0464 C.ar      1 UNK        -0.1150 
      7 N7          4.2974   -3.3330    0.0716 N.pl3     1 UNK         0.6500 
      8 C8         -0.0035   -3.4398    0.0566 C.ar      1 UNK        -0.1150 
      9 C9          0.7396   -4.6313    0.0373 C.ar      1 UNK        -0.1150 
     10 O10         4.8841   -2.4571   -0.5555 O.co2     1 UNK        -0.3700 
     11 O11         4.8687   -4.2306    0.6824 O.co2     1 UNK        -0.3700 
     12 H12         2.7193    1.1206    0.2184 H         1 UNK         0.0300 
     13 H13         1.4173    0.3944   -0.7151 H         1 UNK         0.0300 
     14 H14         1.3881    0.3429    1.0652 H         1 UNK         0.0300 
     15 H15         0.0466   -1.3091    0.1116 H         1 UNK         0.1150 
     16 H16         2.7041   -5.5016    0.0255 H         1 UNK         0.1150 
     17 H17        -1.0830   -3.4767    0.0495 H         1 UNK         0.1150 
     18 H18         0.2336   -5.5854    0.0138 H         1 UNK         0.1150 
@<TRIPOS>BOND
     1    1    2 1    
     2    1   12 1    
     3    1   13 1    
     4    1   14 1    
     5    2    3 1    
     6    3    4 ar   
     7    3    5 ar   
     8    4    6 ar   
     9    4    7 1    
    10    5    8 ar   
    11    5   15 1    
    12    6    9 ar   
    13    6   16 1    
    14    7   10 2    
    15    7   11 1    
    16    8    9 ar   
    17    8   17 1    
    18    9   18 1    
@<TRIPOS>SUBSTRUCTURE
     1 UNK         1 GROUP             0       ****    0 ROOT    
