@<TRIPOS>MOLECULE
title: molecule 1
27   28    1
SMALL
USER_CHARGES


@<TRIPOS>ATOM
      1 C1          1.5454    1.0247    0.0887 C.ar      1 UNK         0.0000 
      2 C2          0.8086    2.1388   -0.3770 C.ar      1 UNK        -0.1150 
      3 C3          0.8291   -0.0964    0.5694 C.ar      1 UNK        -0.1150 
      4 C4          3.0226    1.0317    0.0734 C.ar      1 UNK         0.0000 
      5 C5         -0.5998    2.1343   -0.3638 C.ar      1 UNK        -0.1150 
      6 C6         -0.5793   -0.1054    0.5853 C.ar      1 UNK        -0.1150 
      7 C7          3.7475    2.2024    0.3894 C.ar      1 UNK        -0.1150 
      8 C8          3.7522   -0.1319   -0.2578 C.ar      1 UNK        -0.1150 
      9 C9         -1.2959    1.0111    0.1180 C.ar      1 UNK        -0.1150 
     10 C10         5.1555    2.2114    0.3758 C.ar      1 UNK        -0.1150 
     11 C11         5.1605   -0.1296   -0.2741 C.ar      1 UNK        -0.1150 
     12 C12         5.8795    1.0453    0.0436 C.ar      1 UNK        -0.1150 
     13 C13         7.3697    1.0836    0.0367 C.2       1 UNK         0.5850 
     14 C14         8.1138   -0.1999   -0.3271 C.3       1 UNK        -0.1800 
     15 O15         8.0244    2.0898    0.3074 O.2       1 UNK        -0.4700 
     16 H16         1.3233    3.0084   -0.7584 H         1 UNK         0.1150 
     17 H17         1.3597   -0.9610    0.9401 H         1 UNK         0.1150 
     18 H18        -1.1456    2.9934   -0.7254 H         1 UNK         0.1150 
     19 H19        -1.1093   -0.9695    0.9581 H         1 UNK         0.1150 
     20 H20         3.2240    3.1089    0.6554 H         1 UNK         0.1150 
     21 H21         3.2310   -1.0430   -0.5129 H         1 UNK         0.1150 
     22 H22        -2.3759    1.0059    0.1292 H         1 UNK         0.1150 
     23 H23         5.6729    3.1267    0.6257 H         1 UNK         0.1150 
     24 H24         5.6689   -1.0454   -0.5363 H         1 UNK         0.1150 
     25 H25         9.1914   -0.0377   -0.2937 H         1 UNK         0.0600 
     26 H26         7.8674   -0.9966    0.3749 H         1 UNK         0.0600 
     27 H27         7.8491   -0.5228   -1.3341 H         1 UNK         0.0600 
@<TRIPOS>BOND
     1    1    2 ar   
     2    1    3 ar   
     3    1    4 1    
     4    2    5 ar   
     5    2   16 1    
     6    3    6 ar   
     7    3   17 1    
     8    4    7 ar   
     9    4    8 ar   
    10    5    9 ar   
    11    5   18 1    
    12    6    9 ar   
    13    6   19 1    
    14    7   10 ar   
    15    7   20 1    
    16    8   11 ar   
    17    8   21 1    
    18    9   22 1    
    19   10   12 ar   
    20   10   23 1    
    21   11   12 ar   
    22   11   24 1    
    23   12   13 1    
    24   13   14 1    
    25   13   15 2    
    26   14   25 1    
    27   14   26 1    
    28   14   27 1    
@<TRIPOS>SUBSTRUCTURE
     1 UNK         1 GROUP             0       ****    0 ROOT    
