@<TRIPOS>MOLECULE
title: molecule 1
11   10    1
SMALL
USER_CHARGES


@<TRIPOS>ATOM
      1 C1          3.4465    0.2871    0.0741 C.3       1 UNK         0.1450 
      2 O2          4.8524    0.1616    0.0855 O.3       1 UNK        -0.6830 
      3 C3          2.8045   -1.1067    0.1100 C.3       1 UNK        -0.1200 
      4 C4          1.3330   -1.0691    0.1008 C.1       1 UNK         0.0100 
      5 C5          0.1120   -1.0489    0.0956 C.1       1 UNK        -0.2100 
      6 H6          3.1472    0.8305   -0.8232 H         1 UNK         0.0600 
      7 H7          3.1375    0.8803    0.9358 H         1 UNK         0.0600 
      8 H8          5.2328    1.0265    0.0631 H         1 UNK         0.4180 
      9 H9          3.1255   -1.6961   -0.7495 H         1 UNK         0.0600 
     10 H10         3.1158   -1.6464    1.0050 H         1 UNK         0.0600 
     11 H11        -0.9549   -1.0343    0.0910 H         1 UNK         0.2000 
@<TRIPOS>BOND
     1    1    2 1    
     2    1    3 1    
     3    1    6 1    
     4    1    7 1    
     5    2    8 1    
     6    3    4 1    
     7    3    9 1    
     8    3   10 1    
     9    4    5 3    
    10    5   11 1    
@<TRIPOS>SUBSTRUCTURE
     1 UNK         1 GROUP             0       ****    0 ROOT    
