@<TRIPOS>MOLECULE
title: molecule 1
31   30    1
SMALL
USER_CHARGES


@<TRIPOS>ATOM
      1 C1         -1.8292    0.9395    0.1034 C.3       1 UNK        -0.1800 
      2 C2         -0.5588    1.8036    0.1047 C.3       1 UNK        -0.1200 
      3 C3          0.7386    0.9910    0.1090 C.2       1 UNK         0.4700 
      4 C4          2.0404    1.7972    0.1105 C.3       1 UNK        -0.1200 
      5 O5          0.7352   -0.2406    0.1111 O.2       1 UNK        -0.4700 
      6 C6          3.3104    0.9280    0.1148 C.3       1 UNK        -0.1200 
      7 C7          4.5914    1.7737    0.1162 C.3       1 UNK        -0.1200 
      8 C8          5.8648    0.9155    0.1205 C.3       1 UNK        -0.1200 
      9 C9          7.1464    1.7616    0.1218 C.3       1 UNK        -0.1200 
     10 C10         8.4197    0.9036    0.1261 C.3       1 UNK        -0.1200 
     11 C11         9.6987    1.7482    0.1275 C.3       1 UNK        -0.1800 
     12 H12        -2.7204    1.5672    0.1004 H         1 UNK         0.0600 
     13 H13        -1.8743    0.2992   -0.7783 H         1 UNK         0.0600 
     14 H14        -1.8782    0.3022    0.9871 H         1 UNK         0.0600 
     15 H15        -0.5558    2.4522   -0.7715 H         1 UNK         0.0600 
     16 H16        -0.5597    2.4552    0.9787 H         1 UNK         0.0600 
     17 H17         2.0413    2.4459   -0.7657 H         1 UNK         0.0600 
     18 H18         2.0374    2.4489    0.9844 H         1 UNK         0.0600 
     19 H19         3.3076    0.2772    0.9905 H         1 UNK         0.0600 
     20 H20         3.3115    0.2742   -0.7587 H         1 UNK         0.0600 
     21 H21         4.5960    2.4253   -0.7586 H         1 UNK         0.0600 
     22 H22         4.5921    2.4283    0.9887 H         1 UNK         0.0600 
     23 H23         5.8598    0.2638    0.9951 H         1 UNK         0.0600 
     24 H24         5.8637    0.2608   -0.7520 H         1 UNK         0.0600 
     25 H25         7.1517    2.4133   -0.7529 H         1 UNK         0.0600 
     26 H26         7.1478    2.4163    0.9943 H         1 UNK         0.0600 
     27 H27         8.4193    0.2520    1.0007 H         1 UNK         0.0600 
     28 H28         8.4232    0.2490   -0.7462 H         1 UNK         0.0600 
     29 H29        10.5841    1.1122    0.1306 H         1 UNK         0.0600 
     30 H30         9.7505    2.3861   -0.7552 H         1 UNK         0.0600 
     31 H31         9.7466    2.3891    1.0083 H         1 UNK         0.0600 
@<TRIPOS>BOND
     1    1    2 1    
     2    1   12 1    
     3    1   13 1    
     4    1   14 1    
     5    2    3 1    
     6    2   15 1    
     7    2   16 1    
     8    3    4 1    
     9    3    5 2    
    10    4    6 1    
    11    4   17 1    
    12    4   18 1    
    13    6    7 1    
    14    6   19 1    
    15    6   20 1    
    16    7    8 1    
    17    7   21 1    
    18    7   22 1    
    19    8    9 1    
    20    8   23 1    
    21    8   24 1    
    22    9   10 1    
    23    9   25 1    
    24    9   26 1    
    25   10   11 1    
    26   10   27 1    
    27   10   28 1    
    28   11   29 1    
    29   11   30 1    
    30   11   31 1    
@<TRIPOS>SUBSTRUCTURE
     1 UNK         1 GROUP             0       ****    0 ROOT    
