@<TRIPOS>MOLECULE
title: molecule 1
19   18    1
SMALL
USER_CHARGES


@<TRIPOS>ATOM
      1 C1          0.3033   -0.6590   -0.8114 C.3       1 UNK        -0.1800 
      2 C2          1.0317    0.1106    0.2951 C.3       1 UNK        -0.1200 
      3 C3          2.4218   -0.4360    0.5450 C.2       1 UNK        -0.1150 
      4 C4          3.5518    0.2805    0.4317 C.2       1 UNK        -0.1150 
      5 C5          4.9421   -0.2656    0.6829 C.3       1 UNK        -0.1200 
      6 C6          5.8400   -0.1367   -0.5538 C.3       1 UNK         0.1450 
      7 O7          7.1226   -0.6506   -0.2667 O.3       1 UNK        -0.6830 
      8 H8         -0.6964   -0.2548   -0.9718 H         1 UNK         0.0600 
      9 H9          0.8436   -0.5948   -1.7564 H         1 UNK         0.0600 
     10 H10         0.1981   -1.7138   -0.5555 H         1 UNK         0.0600 
     11 H11         1.0911    1.1677    0.0328 H         1 UNK         0.0600 
     12 H12         0.4644    0.0483    1.2241 H         1 UNK         0.0600 
     13 H13         2.4774   -1.4757    0.8340 H         1 UNK         0.1150 
     14 H14         3.4959    1.3206    0.1445 H         1 UNK         0.1150 
     15 H15         5.3779    0.2812    1.5198 H         1 UNK         0.0600 
     16 H16         4.8759   -1.3106    0.9893 H         1 UNK         0.0600 
     17 H17         5.4165   -0.6856   -1.3957 H         1 UNK         0.0600 
     18 H18         5.9341    0.9069   -0.8562 H         1 UNK         0.0600 
     19 H19         7.6616   -0.5656   -1.0384 H         1 UNK         0.4180 
@<TRIPOS>BOND
     1    1    2 1    
     2    1    8 1    
     3    1    9 1    
     4    1   10 1    
     5    2    3 1    
     6    2   11 1    
     7    2   12 1    
     8    3    4 2    
     9    3   13 1    
    10    4    5 1    
    11    4   14 1    
    12    5    6 1    
    13    5   15 1    
    14    5   16 1    
    15    6    7 1    
    16    6   17 1    
    17    6   18 1    
    18    7   19 1    
@<TRIPOS>SUBSTRUCTURE
     1 UNK         1 GROUP             0       ****    0 ROOT    
