@<TRIPOS>MOLECULE
title: molecule 1
19   18    1
SMALL
USER_CHARGES


@<TRIPOS>ATOM
      1 C1          2.8393    0.1553   -0.2822 C.3       1 UNK        -0.1200 
      2 C2          1.5073   -0.0778    0.4081 C.2       1 UNK        -0.1150 
      3 C3          3.9804    0.3412    0.7270 C.3       1 UNK        -0.1200 
      4 C4          0.4356    0.7367    0.4099 C.2       1 UNK        -0.1150 
      5 C5          5.3383    0.5497    0.0475 C.3       1 UNK        -0.1800 
      6 C6          0.3094    2.0890   -0.2657 C.3       1 UNK         0.1450 
      7 O7         -0.3107    3.0106    0.6038 O.3       1 UNK        -0.6830 
      8 H8          2.7938    1.0099   -0.9546 H         1 UNK         0.0600 
      9 H9          3.0426   -0.7110   -0.9126 H         1 UNK         0.0600 
     10 H10         1.4340   -1.0086    0.9517 H         1 UNK         0.1150 
     11 H11         3.7646    1.1972    1.3676 H         1 UNK         0.0600 
     12 H12         4.0370   -0.5286    1.3826 H         1 UNK         0.0600 
     13 H13        -0.4465    0.4074    0.9401 H         1 UNK         0.1150 
     14 H14         6.1275    0.6792    0.7883 H         1 UNK         0.0600 
     15 H15         5.6030   -0.3059   -0.5745 H         1 UNK         0.0600 
     16 H16         5.3292    1.4363   -0.5871 H         1 UNK         0.0600 
     17 H17         1.2746    2.4916   -0.5674 H         1 UNK         0.0600 
     18 H18        -0.3017    1.9835   -1.1623 H         1 UNK         0.0600 
     19 H19        -0.4047    3.8354    0.1520 H         1 UNK         0.4180 
@<TRIPOS>BOND
     1    1    2 1    
     2    1    3 1    
     3    1    8 1    
     4    1    9 1    
     5    2    4 2    
     6    2   10 1    
     7    3    5 1    
     8    3   11 1    
     9    3   12 1    
    10    4    6 1    
    11    4   13 1    
    12    5   14 1    
    13    5   15 1    
    14    5   16 1    
    15    6    7 1    
    16    6   17 1    
    17    6   18 1    
    18    7   19 1    
@<TRIPOS>SUBSTRUCTURE
     1 UNK         1 GROUP             0       ****    0 ROOT    
