@<TRIPOS>MOLECULE
title: molecule 1
15   15    1
SMALL
USER_CHARGES


@<TRIPOS>ATOM
      1 Cl1        -0.9081    0.9738   -0.1165 Cl        1 UNK        -0.2000 
      2 C2          0.8331    0.9555   -0.4981 C.3       1 UNK         0.0970 
      3 C3          1.5435   -0.2539    0.1045 C.3       1 UNK        -0.1200 
      4 C4          1.5694    2.1475    0.1080 C.3       1 UNK        -0.1200 
      5 C5          3.0188    0.1612    0.1576 C.3       1 UNK        -0.1200 
      6 C6          3.0355    1.7005    0.1599 C.3       1 UNK        -0.1200 
      7 H7          0.9401    0.9559   -1.5838 H         1 UNK         0.1030 
      8 H8          1.3801   -1.1678   -0.4674 H         1 UNK         0.0600 
      9 H9          1.1809   -0.4273    1.1187 H         1 UNK         0.0600 
     10 H10         1.2106    2.3258    1.1227 H         1 UNK         0.0600 
     11 H11         1.4258    3.0664   -0.4613 H         1 UNK         0.0600 
     12 H12         3.5457   -0.2111   -0.7218 H         1 UNK         0.0600 
     13 H13         3.5165   -0.2537    1.0347 H         1 UNK         0.0600 
     14 H14         3.5420    2.1021    1.0382 H         1 UNK         0.0600 
     15 H15         3.5703    2.0640   -0.7185 H         1 UNK         0.0600 
@<TRIPOS>BOND
     1    1    2 1    
     2    2    3 1    
     3    2    4 1    
     4    2    7 1    
     5    3    5 1    
     6    3    8 1    
     7    3    9 1    
     8    4    6 1    
     9    4   10 1    
    10    4   11 1    
    11    5    6 1    
    12    5   12 1    
    13    5   13 1    
    14    6   14 1    
    15    6   15 1    
@<TRIPOS>SUBSTRUCTURE
     1 UNK         1 GROUP             0       ****    0 ROOT    
