@<TRIPOS>MOLECULE
title: molecule 1
13   13    1
SMALL
USER_CHARGES


@<TRIPOS>ATOM
      1 O1          4.1153   -4.6060    0.1117 O.3       1 UNK        -0.5850 
      2 C2          3.4490   -3.4141    0.1040 C.ar      1 UNK         0.1500 
      3 C3          2.0403   -3.4100    0.0965 C.ar      1 UNK        -0.1150 
      4 C4          4.1608   -2.1940    0.1035 C.ar      1 UNK         0.1800 
      5 C5          1.3379   -2.1898    0.0885 C.ar      1 UNK         0.1800 
      6 C6          3.4534   -0.9703    0.0955 C.ar      1 UNK         0.1800 
      7 Cl7         5.8912   -2.2071    0.1127 Cl        1 UNK        -0.1800 
      8 Cl8        -0.3873   -2.1866    0.0794 Cl        1 UNK        -0.1800 
      9 C9          2.0445   -0.9721    0.0880 C.ar      1 UNK        -0.1150 
     10 Cl10        4.2928    0.5401    0.0947 Cl        1 UNK        -0.1800 
     11 H11         5.0550   -4.5001    0.1163 H         1 UNK         0.4350 
     12 H12         1.4974   -4.3441    0.0969 H         1 UNK         0.1150 
     13 H13         1.5045   -0.0365    0.0819 H         1 UNK         0.1150 
@<TRIPOS>BOND
     1    1    2 1    
     2    1   11 1    
     3    2    3 ar   
     4    2    4 ar   
     5    3    5 ar   
     6    3   12 1    
     7    4    6 ar   
     8    4    7 1    
     9    5    8 1    
    10    5    9 ar   
    11    6    9 ar   
    12    6   10 1    
    13    9   13 1    
@<TRIPOS>SUBSTRUCTURE
     1 UNK         1 GROUP             0       ****    0 ROOT    
