@<TRIPOS>MOLECULE
title: molecule 1
20   20    1
SMALL
USER_CHARGES


@<TRIPOS>ATOM
      1 C1          0.6858    3.1893    0.1256 C.3       1 UNK         0.1400 
      2 O2          1.3605    1.9390    0.1172 O.3       1 UNK        -0.2850 
      3 C3         -0.8223    2.9305    0.1498 C.3       1 UNK        -0.1800 
      4 C4          2.7405    1.9361    0.0956 C.ar      1 UNK         0.0850 
      5 C5          3.3898    0.6803    0.0876 C.ar      1 UNK         0.1500 
      6 C6          3.5324    3.1131    0.0810 C.ar      1 UNK        -0.1150 
      7 O7          2.6553   -0.4712    0.1012 O.3       1 UNK        -0.5850 
      8 C8          4.7967    0.5997    0.0656 C.ar      1 UNK        -0.1150 
      9 C9          4.9381    3.0297    0.0591 C.ar      1 UNK        -0.1150 
     10 C10         5.5713    1.7738    0.0513 C.ar      1 UNK        -0.1150 
     11 H11         0.9425    3.7663   -0.7641 H         1 UNK         0.0300 
     12 H12         0.9703    3.7694    1.0047 H         1 UNK         0.0300 
     13 H13        -1.3787    3.8679    0.1569 H         1 UNK         0.0600 
     14 H14        -1.1355    2.3616   -0.7260 H         1 UNK         0.0600 
     15 H15        -1.1078    2.3648    1.0370 H         1 UNK         0.0600 
     16 H16         3.0855    4.0953    0.0863 H         1 UNK         0.1150 
     17 H17         3.1865   -1.2521    0.0942 H         1 UNK         0.4350 
     18 H18         5.2869   -0.3628    0.0596 H         1 UNK         0.1150 
     19 H19         5.5313    3.9322    0.0481 H         1 UNK         0.1150 
     20 H20         6.6494    1.7110    0.0345 H         1 UNK         0.1150 
@<TRIPOS>BOND
     1    1    2 1    
     2    1    3 1    
     3    1   11 1    
     4    1   12 1    
     5    2    4 1    
     6    3   13 1    
     7    3   14 1    
     8    3   15 1    
     9    4    5 ar   
    10    4    6 ar   
    11    5    7 1    
    12    5    8 ar   
    13    6    9 ar   
    14    6   16 1    
    15    7   17 1    
    16    8   10 ar   
    17    8   18 1    
    18    9   10 ar   
    19    9   19 1    
    20   10   20 1    
@<TRIPOS>SUBSTRUCTURE
     1 UNK         1 GROUP             0       ****    0 ROOT    
