@<TRIPOS>MOLECULE
title: molecule 1
29   29    1
SMALL
USER_CHARGES


@<TRIPOS>ATOM
      1 C1          0.8625   -0.4861   -0.7819 C.ar      1 UNK        -0.1150 
      2 C2          1.2783    0.6279   -0.0265 C.ar      1 UNK        -0.1150 
      3 C3         -0.5026   -0.6832   -1.0589 C.ar      1 UNK        -0.1150 
      4 C4          0.3309    1.5613    0.4612 C.ar      1 UNK        -0.1150 
      5 C5         -1.4533    0.2361   -0.5792 C.ar      1 UNK        -0.1150 
      6 C6         -1.0388    1.3504    0.1758 C.ar      1 UNK        -0.1150 
      7 C7          0.7285    2.7546    1.2667 C.2       1 UNK         0.5850 
      8 C8          2.2162    2.9886    1.5507 C.3       1 UNK        -0.1200 
      9 O9         -0.0835    3.5641    1.7143 O.2       1 UNK        -0.4700 
     10 C10         2.9421    3.6447    0.3642 C.3       1 UNK        -0.1200 
     11 C11         4.4324    3.8724    0.6521 C.3       1 UNK        -0.1200 
     12 C12         5.1668    4.5302   -0.5249 C.3       1 UNK        -0.1200 
     13 C13         6.6550    4.7570   -0.2373 C.3       1 UNK        -0.1800 
     14 H14         1.5937   -1.1909   -1.1497 H         1 UNK         0.1150 
     15 H15         2.3344    0.7438    0.1628 H         1 UNK         0.1150 
     16 H16        -0.8199   -1.5378   -1.6382 H         1 UNK         0.1150 
     17 H17        -2.5021    0.0873   -0.7901 H         1 UNK         0.1150 
     18 H18        -1.7879    2.0425    0.5333 H         1 UNK         0.1150 
     19 H19         2.2983    3.6343    2.4256 H         1 UNK         0.0600 
     20 H20         2.6928    2.0487    1.8275 H         1 UNK         0.0600 
     21 H21         2.8393    3.0267   -0.5285 H         1 UNK         0.0600 
     22 H22         2.4687    4.5997    0.1315 H         1 UNK         0.0600 
     23 H23         4.5386    4.4965    1.5405 H         1 UNK         0.0600 
     24 H24         4.9055    2.9180    0.8869 H         1 UNK         0.0600 
     25 H25         5.0644    3.9077   -1.4146 H         1 UNK         0.0600 
     26 H26         4.6976    5.4858   -0.7614 H         1 UNK         0.0600 
     27 H27         7.1485    5.2244   -1.0897 H         1 UNK         0.0600 
     28 H28         6.7947    5.4083    0.6259 H         1 UNK         0.0600 
     29 H29         7.1650    3.8151   -0.0334 H         1 UNK         0.0600 
@<TRIPOS>BOND
     1    1    2 ar   
     2    1    3 ar   
     3    1   14 1    
     4    2    4 ar   
     5    2   15 1    
     6    3    5 ar   
     7    3   16 1    
     8    4    6 ar   
     9    4    7 1    
    10    5    6 ar   
    11    5   17 1    
    12    6   18 1    
    13    7    8 1    
    14    7    9 2    
    15    8   10 1    
    16    8   19 1    
    17    8   20 1    
    18   10   11 1    
    19   10   21 1    
    20   10   22 1    
    21   11   12 1    
    22   11   23 1    
    23   11   24 1    
    24   12   13 1    
    25   12   25 1    
    26   12   26 1    
    27   13   27 1    
    28   13   28 1    
    29   13   29 1    
@<TRIPOS>SUBSTRUCTURE
     1 UNK         1 GROUP             0       ****    0 ROOT    
