@<TRIPOS>MOLECULE
title: molecule 1
15   16    1
SMALL
USER_CHARGES


@<TRIPOS>ATOM
      1 C1          1.9741    0.4511    0.1173 C.ar      1 UNK         0.4742 
      2 C2          1.9283    1.8831    0.1106 C.ar      1 UNK        -0.0677 
      3 C3          3.3312   -0.0516    0.1497 C.2       1 UNK        -0.4654 
      4 C4          0.7315   -0.2269    0.0922 C.ar      1 UNK        -0.4343 
      5 S5          3.5505    2.5605    0.1441 S.3       1 UNK        -0.0683 
      6 C6          0.7075    2.5836    0.0804 C.ar      1 UNK        -0.1358 
      7 C7          4.2487    0.9692    0.1661 C.2       1 UNK        -0.1541 
      8 C8         -0.4929    0.4690    0.0620 C.ar      1 UNK        -0.0101 
      9 C9         -0.5063    1.8749    0.0561 C.ar      1 UNK        -0.2617 
     10 H10         3.5799   -1.1024    0.1595 H         1 UNK         0.2229 
     11 H11         0.7225   -1.3066    0.0963 H         1 UNK         0.1983 
     12 H12         0.7045    3.6636    0.0760 H         1 UNK         0.1879 
     13 H13         5.3243    0.8728    0.1906 H         1 UNK         0.2278 
     14 H14        -1.4238   -0.0786    0.0434 H         1 UNK         0.1245 
     15 H15        -1.4455    2.4080    0.0329 H         1 UNK         0.1618 
@<TRIPOS>BOND
     1    1    2 ar   
     2    1    3 1    
     3    1    4 ar   
     4    2    5 1    
     5    2    6 ar   
     6    3    7 2    
     7    3   10 1    
     8    4    8 ar   
     9    4   11 1    
    10    5    7 1    
    11    6    9 ar   
    12    6   12 1    
    13    7   13 1    
    14    8    9 ar   
    15    8   14 1    
    16    9   15 1    
@<TRIPOS>SUBSTRUCTURE
     1 UNK         1 GROUP             0       ****    0 ROOT    
