@<TRIPOS>MOLECULE
title: molecule 1
13   13    1
SMALL
USER_CHARGES


@<TRIPOS>ATOM
      1 O1          4.1807   -2.1577    0.0978 O.3       1 UNK        -0.5850 
      2 C2          2.8156   -2.1833    0.0979 C.ar      1 UNK         0.1500 
      3 C3          2.1436   -3.4220    0.1020 C.ar      1 UNK        -0.1150 
      4 C4          2.0754   -0.9808    0.0940 C.ar      1 UNK         0.1800 
      5 C5          0.7356   -3.4620    0.1021 C.ar      1 UNK        -0.1150 
      6 C6          0.6668   -1.0237    0.0941 C.ar      1 UNK        -0.1150 
      7 Cl7         2.8815    0.5474    0.0889 Cl        1 UNK        -0.1800 
      8 C8         -0.0029   -2.2628    0.0982 C.ar      1 UNK        -0.1150 
      9 H9          4.5274   -1.2781    0.0949 H         1 UNK         0.4350 
     10 H10         2.7074   -4.3435    0.1050 H         1 UNK         0.1150 
     11 H11         0.2225   -4.4125    0.1053 H         1 UNK         0.1150 
     12 H12         0.0982   -0.1053    0.0911 H         1 UNK         0.1150 
     13 H13        -1.0826   -2.2933    0.0983 H         1 UNK         0.1150 
@<TRIPOS>BOND
     1    1    2 1    
     2    1    9 1    
     3    2    3 ar   
     4    2    4 ar   
     5    3    5 ar   
     6    3   10 1    
     7    4    6 ar   
     8    4    7 1    
     9    5    8 ar   
    10    5   11 1    
    11    6    8 ar   
    12    6   12 1    
    13    8   13 1    
@<TRIPOS>SUBSTRUCTURE
     1 UNK         1 GROUP             0       ****    0 ROOT    
