@<TRIPOS>MOLECULE
title: molecule 1
15   15    1
SMALL
USER_CHARGES


@<TRIPOS>ATOM
      1 O1          0.0219   -2.2222    0.0998 O.3       1 UNK        -0.5850 
      2 C2          1.3887   -2.1967    0.0923 C.ar      1 UNK         0.1500 
      3 C3          2.0871   -0.9677    0.0686 C.ar      1 UNK         0.1800 
      4 C4          2.1053   -3.4106    0.1098 C.ar      1 UNK        -0.1150 
      5 N5          1.3925    0.2419    0.0508 N.pl3     1 UNK        -0.9000 
      6 C6          3.4969   -0.9619    0.0633 C.ar      1 UNK        -0.1150 
      7 C7          3.5137   -3.4009    0.1040 C.ar      1 UNK        -0.1150 
      8 C8          4.2093   -2.1768    0.0809 C.ar      1 UNK        -0.1150 
      9 H9         -0.3329   -3.0976    0.1132 H         1 UNK         0.4350 
     10 H10         1.5786   -4.3535    0.1280 H         1 UNK         0.1150 
     11 H11         1.8706    1.1235    0.1668 H         1 UNK         0.3600 
     12 H12         0.3885    0.2482    0.1633 H         1 UNK         0.3600 
     13 H13         4.0376   -0.0269    0.0451 H         1 UNK         0.1150 
     14 H14         4.0603   -4.3324    0.1175 H         1 UNK         0.1150 
     15 H15         5.2893   -2.1693    0.0765 H         1 UNK         0.1150 
@<TRIPOS>BOND
     1    1    2 1    
     2    1    9 1    
     3    2    3 ar   
     4    2    4 ar   
     5    3    5 1    
     6    3    6 ar   
     7    4    7 ar   
     8    4   10 1    
     9    5   11 1    
    10    5   12 1    
    11    6    8 ar   
    12    6   13 1    
    13    7    8 ar   
    14    7   14 1    
    15    8   15 1    
@<TRIPOS>SUBSTRUCTURE
     1 UNK         1 GROUP             0       ****    0 ROOT    
