@<TRIPOS>MOLECULE
title: molecule 1
17   17    1
SMALL
USER_CHARGES


@<TRIPOS>ATOM
      1 N1          3.1396    0.9139    0.1192 N.pl3     1 UNK        -0.9000 
      2 C2          1.7669    0.6640    0.1035 C.ar      1 UNK         0.1800 
      3 C3          1.2658   -0.6600    0.0870 C.ar      1 UNK        -0.1150 
      4 C4          0.8724    1.7539    0.1044 C.ar      1 UNK        -0.1150 
      5 C5         -0.1291   -0.8756    0.0714 C.ar      1 UNK        -0.1150 
      6 C6          2.2057   -1.8532    0.0857 C.3       1 UNK        -0.0650 
      7 C7         -0.5176    1.5313    0.0888 C.ar      1 UNK        -0.1150 
      8 C8         -1.0186    0.2161    0.0723 C.ar      1 UNK         0.1800 
      9 Cl9        -2.7219   -0.0584    0.0532 Cl        1 UNK        -0.1800 
     10 H10         3.5062    1.8548    0.1300 H         1 UNK         0.3600 
     11 H11         3.8126    0.1611    0.1182 H         1 UNK         0.3600 
     12 H12         1.2483    2.7666    0.1169 H         1 UNK         0.1150 
     13 H13        -0.5229   -1.8814    0.0587 H         1 UNK         0.1150 
     14 H14         1.6555   -2.7944    0.0722 H         1 UNK         0.0600 
     15 H15         2.8507   -1.8281   -0.7930 H         1 UNK         0.0600 
     16 H16         2.8336   -1.8434    0.9770 H         1 UNK         0.0600 
     17 H17        -1.1979    2.3703    0.0895 H         1 UNK         0.1150 
@<TRIPOS>BOND
     1    1    2 1    
     2    1   10 1    
     3    1   11 1    
     4    2    3 ar   
     5    2    4 ar   
     6    3    5 ar   
     7    3    6 1    
     8    4    7 ar   
     9    4   12 1    
    10    5    8 ar   
    11    5   13 1    
    12    6   14 1    
    13    6   15 1    
    14    6   16 1    
    15    7    8 ar   
    16    7   17 1    
    17    8    9 1    
@<TRIPOS>SUBSTRUCTURE
     1 UNK         1 GROUP             0       ****    0 ROOT    
