@<TRIPOS>MOLECULE
title: molecule 1
20   20    1
SMALL
USER_CHARGES


@<TRIPOS>ATOM
      1 N1          4.8243    0.2492    0.1173 N.pl3     1 UNK        -0.9000 
      2 C2          3.6297   -0.4723    0.1123 C.ar      1 UNK         0.1800 
      3 C3          3.6310   -1.8871    0.0706 C.ar      1 UNK        -0.1150 
      4 C4          2.4067    0.2275    0.1502 C.ar      1 UNK        -0.1150 
      5 C5          2.4039   -2.5844    0.0669 C.ar      1 UNK        -0.1150 
      6 C6          4.9333   -2.6679    0.0302 C.3       1 UNK        -0.0650 
      7 C7          1.1863   -0.4743    0.1463 C.ar      1 UNK        -0.1150 
      8 C8          1.1818   -1.8826    0.1030 C.ar      1 UNK        -0.1150 
      9 C9         -0.1300   -2.6401    0.1017 C.3       1 UNK        -0.0650 
     10 H10         4.8320    1.2563    0.1912 H         1 UNK         0.3600 
     11 H11         5.7198   -0.2170    0.1349 H         1 UNK         0.3600 
     12 H12         2.3984    1.3072    0.1829 H         1 UNK         0.1150 
     13 H13         2.3977   -3.6644    0.0367 H         1 UNK         0.1150 
     14 H14         4.7532   -3.7427   -0.0027 H         1 UNK         0.0600 
     15 H15         5.5118   -2.3966   -0.8532 H         1 UNK         0.0600 
     16 H16         5.5321   -2.4541    0.9159 H         1 UNK         0.0600 
     17 H17         0.2552    0.0724    0.1770 H         1 UNK         0.1150 
     18 H18        -0.9245   -2.0434   -0.3474 H         1 UNK         0.0600 
     19 H19        -0.0425   -3.5667   -0.4663 H         1 UNK         0.0600 
     20 H20        -0.4214   -2.8883    1.1224 H         1 UNK         0.0600 
@<TRIPOS>BOND
     1    1    2 1    
     2    1   10 1    
     3    1   11 1    
     4    2    3 ar   
     5    2    4 ar   
     6    3    5 ar   
     7    3    6 1    
     8    4    7 ar   
     9    4   12 1    
    10    5    8 ar   
    11    5   13 1    
    12    6   14 1    
    13    6   15 1    
    14    6   16 1    
    15    7    8 ar   
    16    7   17 1    
    17    8    9 1    
    18    9   18 1    
    19    9   19 1    
    20    9   20 1    
@<TRIPOS>SUBSTRUCTURE
     1 UNK         1 GROUP             0       ****    0 ROOT    
