@<TRIPOS>MOLECULE
title: molecule 1
15   15    1
SMALL
USER_CHARGES


@<TRIPOS>ATOM
      1 C1          4.9523   -2.6578    0.1351 C.3       1 UNK        -0.0650 
      2 C2          3.6529   -1.8795    0.1129 C.ar      1 UNK        -0.1150 
      3 C3          2.4189   -2.5608    0.1491 C.ar      1 UNK        -0.1150 
      4 C4          3.6717   -0.4714    0.0497 C.ar      1 UNK        -0.1150 
      5 C5          1.2075   -1.8410    0.1258 C.ar      1 UNK         0.1800 
      6 C6          2.4627    0.2504    0.0263 C.ar      1 UNK        -0.1150 
      7 Cl7        -0.2884   -2.7046    0.1724 Cl        1 UNK        -0.1800 
      8 C8          1.2293   -0.4298    0.0645 C.ar      1 UNK         0.1800 
      9 Cl9        -0.2387    0.4810    0.0346 Cl        1 UNK        -0.1800 
     10 H10         5.7462   -2.0768    0.6055 H         1 UNK         0.0600 
     11 H11         4.8393   -3.5876    0.6934 H         1 UNK         0.0600 
     12 H12         5.2613   -2.9024   -0.8814 H         1 UNK         0.0600 
     13 H13         2.3984   -3.6400    0.1946 H         1 UNK         0.1150 
     14 H14         4.6121    0.0594    0.0187 H         1 UNK         0.1150 
     15 H15         2.4827    1.3293   -0.0215 H         1 UNK         0.1150 
@<TRIPOS>BOND
     1    1    2 1    
     2    1   10 1    
     3    1   11 1    
     4    1   12 1    
     5    2    3 ar   
     6    2    4 ar   
     7    3    5 ar   
     8    3   13 1    
     9    4    6 ar   
    10    4   14 1    
    11    5    7 1    
    12    5    8 ar   
    13    6    8 ar   
    14    6   15 1    
    15    8    9 1    
@<TRIPOS>SUBSTRUCTURE
     1 UNK         1 GROUP             0       ****    0 ROOT    
