@<TRIPOS>MOLECULE
title: molecule 1
17   17    1
SMALL
USER_CHARGES


@<TRIPOS>ATOM
      1 C1          3.2173    0.3843    0.0516 C.ar      1 UNK        -0.1150 
      2 C2          3.2357    1.7932    0.0500 C.ar      1 UNK         0.1800 
      3 C3          1.9920   -0.3093    0.0701 C.ar      1 UNK        -0.1150 
      4 C4          2.0184    2.5120    0.0677 C.ar      1 UNK         0.1800 
      5 Cl5         4.7564    2.6162    0.0270 Cl        1 UNK        -0.1800 
      6 C6          0.7765    0.4043    0.0857 C.ar      1 UNK        -0.1150 
      7 C7          0.7933    1.8143    0.0861 C.ar      1 UNK        -0.1150 
      8 N8          2.0111    3.9074    0.0676 N.pl3     1 UNK        -0.9000 
      9 C9         -0.5426   -0.3401    0.1086 C.3       1 UNK        -0.0650 
     10 H10         4.1458   -0.1672    0.0391 H         1 UNK         0.1150 
     11 H11         1.9890   -1.3896    0.0726 H         1 UNK         0.1150 
     12 H12        -0.1384    2.3613    0.1010 H         1 UNK         0.1150 
     13 H13         2.8723    4.4348    0.0383 H         1 UNK         0.3600 
     14 H14         1.1497    4.4343    0.0621 H         1 UNK         0.3600 
     15 H15        -1.3164    0.2247   -0.4122 H         1 UNK         0.0600 
     16 H16        -0.4504   -1.3119   -0.3772 H         1 UNK         0.0600 
     17 H17        -0.8665   -0.4992    1.1373 H         1 UNK         0.0600 
@<TRIPOS>BOND
     1    1    2 ar   
     2    1    3 ar   
     3    1   10 1    
     4    2    4 ar   
     5    2    5 1    
     6    3    6 ar   
     7    3   11 1    
     8    4    7 ar   
     9    4    8 1    
    10    6    7 ar   
    11    6    9 1    
    12    7   12 1    
    13    8   13 1    
    14    8   14 1    
    15    9   15 1    
    16    9   16 1    
    17    9   17 1    
@<TRIPOS>SUBSTRUCTURE
     1 UNK         1 GROUP             0       ****    0 ROOT    
