@<TRIPOS>MOLECULE
title: molecule 1
16   15    1
SMALL
USER_CHARGES


@<TRIPOS>ATOM
      1 C1          2.6355    0.6711    0.0851 C.3       1 UNK        -0.1800 
      2 C2          2.2744   -0.7949   -0.2028 C.3       1 UNK        -0.0600 
      3 C3          3.4004   -1.7170    0.2736 C.2       1 UNK         0.4500 
      4 C4          0.9098   -1.1733    0.4124 C.3       1 UNK        -0.1200 
      5 O5          3.6570   -2.7619   -0.3213 O.2       1 UNK        -0.4500 
      6 C6          0.3730   -2.5458   -0.0225 C.3       1 UNK        -0.1800 
      7 H7          1.8971    1.3455   -0.3492 H         1 UNK         0.0600 
      8 H8          2.6751    0.8711    1.1567 H         1 UNK         0.0600 
      9 H9          3.6046    0.9348   -0.3407 H         1 UNK         0.0600 
     10 H10         2.2041   -0.9110   -1.2849 H         1 UNK         0.0600 
     11 H11         3.9452   -1.3825    1.1568 H         1 UNK         0.0000 
     12 H12         0.9687   -1.1364    1.5012 H         1 UNK         0.0600 
     13 H13         0.1755   -0.4183    0.1293 H         1 UNK         0.0600 
     14 H14        -0.6243   -2.7154    0.3836 H         1 UNK         0.0600 
     15 H15         0.3044   -2.6148   -1.1084 H         1 UNK         0.0600 
     16 H16         1.0089   -3.3594    0.3267 H         1 UNK         0.0600 
@<TRIPOS>BOND
     1    1    2 1    
     2    1    7 1    
     3    1    8 1    
     4    1    9 1    
     5    2    3 1    
     6    2    4 1    
     7    2   10 1    
     8    3    5 2    
     9    3   11 1    
    10    4    6 1    
    11    4   12 1    
    12    4   13 1    
    13    6   14 1    
    14    6   15 1    
    15    6   16 1    
@<TRIPOS>SUBSTRUCTURE
     1 UNK         1 GROUP             0       ****    0 ROOT    
