@<TRIPOS>MOLECULE
title: molecule 1
13   12    1
SMALL
USER_CHARGES


@<TRIPOS>ATOM
      1 O1          2.7781    0.2283    0.0624 O.3       1 UNK        -0.6830 
      2 C2          2.1527   -0.9970    0.3825 C.3       1 UNK         0.2050 
      3 C3          2.9391   -2.1266   -0.3067 C.3       1 UNK         0.1450 
      4 C4          0.6906   -0.9065   -0.0838 C.3       1 UNK        -0.0060 
      5 O5          4.1944   -2.2905    0.3209 O.3       1 UNK        -0.6830 
      6 Cl6        -0.2439   -2.3305    0.4458 Cl        1 UNK        -0.2000 
      7 H7          3.6876    0.1626    0.3137 H         1 UNK         0.4180 
      8 H8          2.1763   -1.1276    1.4655 H         1 UNK         0.0600 
      9 H9          2.4047   -3.0733   -0.2270 H         1 UNK         0.0600 
     10 H10         3.0768   -1.9242   -1.3697 H         1 UNK         0.0600 
     11 H11         0.2006   -0.0275    0.3363 H         1 UNK         0.1030 
     12 H12         0.6185   -0.8413   -1.1700 H         1 UNK         0.1030 
     13 H13         4.6526   -3.0006   -0.1025 H         1 UNK         0.4180 
@<TRIPOS>BOND
     1    1    2 1    
     2    1    7 1    
     3    2    3 1    
     4    2    4 1    
     5    2    8 1    
     6    3    5 1    
     7    3    9 1    
     8    3   10 1    
     9    4    6 1    
    10    4   11 1    
    11    4   12 1    
    12    5   13 1    
@<TRIPOS>SUBSTRUCTURE
     1 UNK         1 GROUP             0       ****    0 ROOT    
