@<TRIPOS>MOLECULE
title: molecule 1
11   10    1
SMALL
USER_CHARGES


@<TRIPOS>ATOM
      1 C1          3.4817    1.1212    0.2414 C.3       1 UNK        -0.0889 
      2 C2          1.9912    1.2712   -0.0374 C.2       1 UNK         0.5100 
      3 Br3         4.1829   -0.4689   -0.7316 Br        1 UNK        -0.2039 
      4 O4          1.2740    0.2271    0.4065 O.3       1 UNK        -0.3300 
      5 O5          1.5426    2.2686   -0.6028 O.2       1 UNK        -0.4300 
      6 C6         -0.1306    0.2161    0.2201 C.3       1 UNK         0.1600 
      7 H7          4.0300    2.0002   -0.0974 H         1 UNK         0.1464 
      8 H8          3.6618    0.9799    1.3069 H         1 UNK         0.1464 
      9 H9         -0.5524   -0.6990    0.6356 H         1 UNK         0.0300 
     10 H10        -0.5966    1.0647    0.7225 H         1 UNK         0.0300 
     11 H11        -0.3824    0.2562   -0.8404 H         1 UNK         0.0300 
@<TRIPOS>BOND
     1    1    2 1    
     2    1    3 1    
     3    1    7 1    
     4    1    8 1    
     5    2    4 1    
     6    2    5 2    
     7    4    6 1    
     8    6    9 1    
     9    6   10 1    
    10    6   11 1    
@<TRIPOS>SUBSTRUCTURE
     1 UNK         1 GROUP             0       ****    0 ROOT    
