@<TRIPOS>MOLECULE
title: molecule 1
9   9    1
SMALL
USER_CHARGES


@<TRIPOS>ATOM
      1 S1          0.7190   -0.5643    0.2051 S.3       1 UNK         0.0328 
      2 C2          2.0141    0.5940    0.1122 C.2       1 UNK         0.1163 
      3 C3         -0.4572    0.7242    0.1467 C.2       1 UNK        -0.3255 
      4 C4          1.5647    1.8848    0.0412 C.2       1 UNK        -0.0738 
      5 Cl5         3.6365    0.0294    0.1188 Cl        1 UNK        -0.1800 
      6 C6          0.1397    1.9572    0.0613 C.2       1 UNK        -0.0738 
      7 H7         -1.5121    0.4948    0.1788 H         1 UNK         0.2618 
      8 H8          2.1937    2.7604   -0.0230 H         1 UNK         0.1211 
      9 H9         -0.3906    2.8969    0.0131 H         1 UNK         0.1211 
@<TRIPOS>BOND
     1    1    2 1    
     2    1    3 1    
     3    2    4 2    
     4    2    5 1    
     5    3    6 2    
     6    3    7 1    
     7    4    6 1    
     8    4    8 1    
     9    6    9 1    
@<TRIPOS>SUBSTRUCTURE
     1 UNK         1 GROUP             0       ****    0 ROOT    
