@<TRIPOS>MOLECULE
title: molecule 1
16   16    1
SMALL
USER_CHARGES


@<TRIPOS>ATOM
      1 Cl1         6.1998    0.4949    0.2610 Cl        1 UNK        -0.1800 
      2 C2          4.7563   -0.4526    0.1575 C.ar      1 UNK         0.1800 
      3 C3          4.7878   -1.8687    0.0963 C.ar      1 UNK         0.0900 
      4 C4          3.5187    0.2189    0.1640 C.ar      1 UNK        -0.1150 
      5 C5          3.5697   -2.5840    0.0588 C.ar      1 UNK        -0.1150 
      6 N6          6.0538   -2.6192    0.0776 N.pl3     1 UNK         0.6500 
      7 C7          2.3123   -0.5032    0.1165 C.ar      1 UNK        -0.1150 
      8 C8          2.3240   -1.9150    0.0662 C.ar      1 UNK         0.0900 
      9 O9          6.9405   -2.2500   -0.6846 O.co2     1 UNK        -0.3700 
     10 O10         6.1389   -3.6025    0.8056 O.co2     1 UNK        -0.3700 
     11 N11         1.0600   -2.6768    0.0210 N.pl3     1 UNK         0.6500 
     12 O12         0.0045   -2.0515    0.0301 O.co2     1 UNK        -0.3700 
     13 O13         1.1210   -3.9012   -0.0237 O.co2     1 UNK        -0.3700 
     14 H14         3.4929    1.2978    0.2124 H         1 UNK         0.1150 
     15 H15         3.6008   -3.6632    0.0162 H         1 UNK         0.1150 
     16 H16         1.3785    0.0400    0.1242 H         1 UNK         0.1150 
@<TRIPOS>BOND
     1    1    2 1    
     2    2    3 ar   
     3    2    4 ar   
     4    3    5 ar   
     5    3    6 1    
     6    4    7 ar   
     7    4   14 1    
     8    5    8 ar   
     9    5   15 1    
    10    6    9 2    
    11    6   10 1    
    12    7    8 ar   
    13    7   16 1    
    14    8   11 1    
    15   11   12 2    
    16   11   13 1    
@<TRIPOS>SUBSTRUCTURE
     1 UNK         1 GROUP             0       ****    0 ROOT    
