@<TRIPOS>MOLECULE
title: molecule 1
24   23    1
SMALL
USER_CHARGES


@<TRIPOS>ATOM
      1 C1          5.1858   -0.4113    0.1070 C.2       1 UNK         0.5100 
      2 O2          5.2495    0.8195    0.1260 O.2       1 UNK        -0.4300 
      3 O3          4.0236   -1.0978    0.1019 O.3       1 UNK        -0.3300 
      4 C4          6.3855   -1.2875    0.0874 C.2       1 UNK         0.0000 
      5 C5          2.7890   -0.3998    0.1188 C.3       1 UNK         0.1900 
      6 C6          7.7274   -0.5752    0.0920 C.3       1 UNK        -0.1800 
      7 C7          6.2884   -2.6318    0.0668 C.2       1 UNK        -0.2300 
      8 C8          1.6360   -1.4098    0.1086 C.3       1 UNK        -0.1200 
      9 C9          0.2618   -0.7266    0.1260 C.3       1 UNK        -0.1200 
     10 C10        -0.8958   -1.7311    0.1159 C.3       1 UNK        -0.1800 
     11 H11         2.7322    0.2274    1.0096 H         1 UNK         0.0300 
     12 H12         2.7236    0.2551   -0.7512 H         1 UNK         0.0300 
     13 H13         8.5533   -1.2870    0.0768 H         1 UNK         0.0600 
     14 H14         7.8230    0.0684   -0.7832 H         1 UNK         0.0600 
     15 H15         7.8316    0.0407    0.9860 H         1 UNK         0.0600 
     16 H16         7.1775   -3.2448    0.0528 H         1 UNK         0.1150 
     17 H17         5.3420   -3.1531    0.0632 H         1 UNK         0.1150 
     18 H18         1.7177   -2.0427   -0.7759 H         1 UNK         0.0600 
     19 H19         1.7262   -2.0701    0.9721 H         1 UNK         0.0600 
     20 H20         0.1798   -0.0930    1.0100 H         1 UNK         0.0600 
     21 H21         0.1713   -0.0656   -0.7367 H         1 UNK         0.0600 
     22 H22        -1.8568   -1.2164    0.1287 H         1 UNK         0.0600 
     23 H23        -0.8661   -2.3576   -0.7759 H         1 UNK         0.0600 
     24 H24        -0.8575   -2.3853    0.9874 H         1 UNK         0.0600 
@<TRIPOS>BOND
     1    1    2 2    
     2    1    3 1    
     3    1    4 1    
     4    3    5 1    
     5    4    6 1    
     6    4    7 2    
     7    5    8 1    
     8    5   11 1    
     9    5   12 1    
    10    6   13 1    
    11    6   14 1    
    12    6   15 1    
    13    7   16 1    
    14    7   17 1    
    15    8    9 1    
    16    8   18 1    
    17    8   19 1    
    18    9   10 1    
    19    9   20 1    
    20    9   21 1    
    21   10   22 1    
    22   10   23 1    
    23   10   24 1    
@<TRIPOS>SUBSTRUCTURE
     1 UNK         1 GROUP             0       ****    0 ROOT    
