@<TRIPOS>MOLECULE
title: molecule 1
11   11    1
SMALL
USER_CHARGES


@<TRIPOS>ATOM
      1 O1          0.5766   -2.6612    0.0948 O.2       1 UNK        -0.4500 
      2 C2          0.8776   -1.4688    0.0955 C.2       1 UNK         0.5650 
      3 C3          2.2556   -1.0029    0.0914 C.2       1 UNK         0.0080 
      4 C4          2.7643    0.2673    0.0915 C.2       1 UNK        -0.1540 
      5 O5          3.2705   -1.9148    0.0866 O.3       1 UNK        -0.1900 
      6 C6          4.1807    0.1350    0.0864 C.2       1 UNK        -0.1540 
      7 C7          4.4332   -1.2072    0.0836 C.2       1 UNK        -0.0190 
      8 H8          0.1291   -0.6763    0.0992 H         1 UNK         0.0000 
      9 H9          2.1885    1.1813    0.0948 H         1 UNK         0.1260 
     10 H10         4.9208    0.9216    0.0850 H         1 UNK         0.1260 
     11 H11         5.3351   -1.8015    0.0796 H         1 UNK         0.1420 
@<TRIPOS>BOND
     1    1    2 2    
     2    2    3 1    
     3    2    8 1    
     4    3    4 2    
     5    3    5 1    
     6    4    6 1    
     7    4    9 1    
     8    5    7 1    
     9    6    7 2    
    10    6   10 1    
    11    7   11 1    
@<TRIPOS>SUBSTRUCTURE
     1 UNK         1 GROUP             0       ****    0 ROOT    
