@<TRIPOS>MOLECULE
title: molecule 1
15   15    1
SMALL
USER_CHARGES


@<TRIPOS>ATOM
      1 Cl1         4.7792   -0.0656   -1.2749 Cl        1 UNK         0.0120 
      2 C2          4.2734   -1.2266   -0.0187 C.3       1 UNK        -0.3256 
      3 C3          2.7462   -1.2277    0.0862 C.ar      1 UNK         0.2896 
      4 Cl4         4.9733   -0.7291    1.5448 Cl        1 UNK         0.0120 
      5 Cl5         4.9532   -2.8246   -0.4416 Cl        1 UNK         0.0120 
      6 C6          2.0854   -0.0219    0.4155 C.ar      1 UNK        -0.1150 
      7 C7          1.9675   -2.3900   -0.1338 C.ar      1 UNK        -0.1150 
      8 C8          0.6823    0.0265    0.5234 C.ar      1 UNK        -0.1150 
      9 C9          0.5637   -2.3419   -0.0258 C.ar      1 UNK        -0.1150 
     10 C10        -0.0802   -1.1348    0.3026 C.ar      1 UNK        -0.1150 
     11 H11         2.6582    0.8776    0.5877 H         1 UNK         0.1150 
     12 H12         2.4209   -3.3352   -0.3874 H         1 UNK         0.1150 
     13 H13         0.1919    0.9551    0.7758 H         1 UNK         0.1150 
     14 H14        -0.0203   -3.2345   -0.1957 H         1 UNK         0.1150 
     15 H15        -1.1566   -1.0998    0.3850 H         1 UNK         0.1150 
@<TRIPOS>BOND
     1    1    2 1    
     2    2    3 1    
     3    2    4 1    
     4    2    5 1    
     5    3    6 ar   
     6    3    7 ar   
     7    6    8 ar   
     8    6   11 1    
     9    7    9 ar   
    10    7   12 1    
    11    8   10 ar   
    12    8   13 1    
    13    9   10 ar   
    14    9   14 1    
    15   10   15 1    
@<TRIPOS>SUBSTRUCTURE
     1 UNK         1 GROUP             0       ****    0 ROOT    
