@<TRIPOS>MOLECULE
title: molecule 1
19   19    1
SMALL
USER_CHARGES


@<TRIPOS>ATOM
      1 C1          4.9355   -0.9427    0.0600 C.ar      1 UNK        -0.1150 
      2 C2          4.1445    0.0128   -0.6063 C.ar      1 UNK        -0.1150 
      3 C3          4.3215   -2.0059    0.7494 C.ar      1 UNK        -0.1150 
      4 C4          2.7403   -0.0957   -0.5842 C.ar      1 UNK        -0.1150 
      5 C5          2.9172   -2.1146    0.7716 C.ar      1 UNK        -0.1150 
      6 C6          2.1185   -1.1620    0.1027 C.ar      1 UNK        -0.1150 
      7 C7          0.6022   -1.2821    0.1386 C.3       1 UNK         0.3200 
      8 O8          0.0102   -1.0449   -1.1226 O.3       1 UNK        -0.6830 
      9 C9         -0.0172   -0.3169    1.1580 C.3       1 UNK        -0.1800 
     10 H10         6.0123   -0.8595    0.0433 H         1 UNK         0.1150 
     11 H11         4.6144    0.8296   -1.1341 H         1 UNK         0.1150 
     12 H12         4.9276   -2.7381    1.2621 H         1 UNK         0.1150 
     13 H13         2.1409    0.6432   -1.0958 H         1 UNK         0.1150 
     14 H14         2.4561   -2.9326    1.3055 H         1 UNK         0.1150 
     15 H15         0.3433   -2.3032    0.4216 H         1 UNK         0.0600 
     16 H16        -0.9229   -1.1729   -1.0462 H         1 UNK         0.4180 
     17 H17        -1.1004   -0.4332    1.2054 H         1 UNK         0.0600 
     18 H18         0.3769   -0.5005    2.1579 H         1 UNK         0.0600 
     19 H19         0.1957    0.7220    0.9032 H         1 UNK         0.0600 
@<TRIPOS>BOND
     1    1    2 ar   
     2    1    3 ar   
     3    1   10 1    
     4    2    4 ar   
     5    2   11 1    
     6    3    5 ar   
     7    3   12 1    
     8    4    6 ar   
     9    4   13 1    
    10    5    6 ar   
    11    5   14 1    
    12    6    7 1    
    13    7    8 1    
    14    7    9 1    
    15    7   15 1    
    16    8   16 1    
    17    9   17 1    
    18    9   18 1    
    19    9   19 1    
@<TRIPOS>SUBSTRUCTURE
     1 UNK         1 GROUP             0       ****    0 ROOT    
