@<TRIPOS>MOLECULE
title: molecule 1
17   17    1
SMALL
USER_CHARGES


@<TRIPOS>ATOM
      1 O1         -0.0326   -1.1015    0.1335 O.co2     1 UNK        -0.3700 
      2 N2          0.5473   -2.1826    0.1269 N.pl3     1 UNK         0.6500 
      3 C3          2.0236   -2.1844    0.1142 C.ar      1 UNK         0.0900 
      4 O4         -0.0348   -3.2625    0.1302 O.co2     1 UNK        -0.3700 
      5 C5          2.7454   -0.9676    0.1113 C.ar      1 UNK        -0.1150 
      6 C6          2.7422   -3.4028    0.1049 C.ar      1 UNK        -0.1150 
      7 C7          4.1547   -0.9661    0.0995 C.ar      1 UNK         0.1800 
      8 C8          4.1502   -3.4047    0.0927 C.ar      1 UNK        -0.1150 
      9 C9          4.8605   -2.1890    0.0898 C.ar      1 UNK         0.1500 
     10 N10         4.8423    0.2478    0.0972 N.pl3     1 UNK        -0.9000 
     11 O11         6.2272   -2.2069    0.0766 O.3       1 UNK        -0.5850 
     12 H12         2.2191   -0.0240    0.1187 H         1 UNK         0.1150 
     13 H13         2.2204   -4.3486    0.1069 H         1 UNK         0.1150 
     14 H14         4.6817   -4.3451    0.0853 H         1 UNK         0.1150 
     15 H15         5.8479    0.2612   -0.0002 H         1 UNK         0.3600 
     16 H16         4.3603    1.1290   -0.0048 H         1 UNK         0.3600 
     17 H17         6.5883   -3.0798    0.0734 H         1 UNK         0.4350 
@<TRIPOS>BOND
     1    1    2 2    
     2    2    3 1    
     3    2    4 1    
     4    3    5 ar   
     5    3    6 ar   
     6    5    7 ar   
     7    5   12 1    
     8    6    8 ar   
     9    6   13 1    
    10    7    9 ar   
    11    7   10 1    
    12    8    9 ar   
    13    8   14 1    
    14    9   11 1    
    15   10   15 1    
    16   10   16 1    
    17   11   17 1    
@<TRIPOS>SUBSTRUCTURE
     1 UNK         1 GROUP             0       ****    0 ROOT    
