@<TRIPOS>MOLECULE
title: molecule 1
14   14    1
SMALL
USER_CHARGES


@<TRIPOS>ATOM
      1 N1          5.6986   -2.1848    0.1094 N.pl3     1 UNK         0.6500 
      2 O2          6.2865   -3.2615    0.1134 O.co2     1 UNK        -0.3700 
      3 O3          6.2721   -1.1003    0.1096 O.co2     1 UNK        -0.3700 
      4 C4          4.2222   -2.1946    0.1040 C.ar      1 UNK         0.0900 
      5 C5          3.5096   -3.4164    0.1035 C.ar      1 UNK        -0.1150 
      6 C6          3.4937   -0.9820    0.0992 C.ar      1 UNK        -0.1150 
      7 C7          2.1016   -3.4241    0.0983 C.ar      1 UNK        -0.1150 
      8 C8          2.0848   -0.9867    0.0940 C.ar      1 UNK         0.1800 
      9 C9          1.3850   -2.2125    0.0936 C.ar      1 UNK         0.1800 
     10 Cl10        1.2368    0.5187    0.0883 Cl        1 UNK        -0.1800 
     11 Cl11       -0.3423   -2.2511    0.0873 Cl        1 UNK        -0.1800 
     12 H12         4.0357   -4.3600    0.1070 H         1 UNK         0.1150 
     13 H13         4.0110   -0.0336    0.0995 H         1 UNK         0.1150 
     14 H14         1.5703   -4.3647    0.0980 H         1 UNK         0.1150 
@<TRIPOS>BOND
     1    1    2 2    
     2    1    3 1    
     3    1    4 1    
     4    4    5 ar   
     5    4    6 ar   
     6    5    7 ar   
     7    5   12 1    
     8    6    8 ar   
     9    6   13 1    
    10    7    9 ar   
    11    7   14 1    
    12    8    9 ar   
    13    8   10 1    
    14    9   11 1    
@<TRIPOS>SUBSTRUCTURE
     1 UNK         1 GROUP             0       ****    0 ROOT    
