@<TRIPOS>MOLECULE
title: molecule 1
25   25    1
SMALL
USER_CHARGES


@<TRIPOS>ATOM
      1 C1          2.5480   -2.4283    0.3313 C.ar      1 UNK        -0.1150 
      2 C2          3.7681   -2.0607    0.9395 C.ar      1 UNK        -0.1150 
      3 C3          2.4980   -3.5900   -0.4712 C.ar      1 UNK        -0.1150 
      4 C4          1.3021   -1.5760    0.5423 C.3       1 UNK         0.0550 
      5 C5          4.9229   -2.8441    0.7480 C.ar      1 UNK        -0.1150 
      6 C6          3.6526   -4.3735   -0.6629 C.ar      1 UNK        -0.1150 
      7 C7          0.7987   -0.9863   -0.7922 C.3       1 UNK        -0.1200 
      8 C8          0.2153   -2.3670    1.2916 C.3       1 UNK        -0.1800 
      9 C9          4.8664   -4.0008   -0.0531 C.ar      1 UNK         0.1500 
     10 C10        -0.2431    0.1291   -0.6278 C.3       1 UNK        -0.1800 
     11 O11         5.9869   -4.7574   -0.2365 O.3       1 UNK        -0.5850 
     12 H12         3.8259   -1.1760    1.5565 H         1 UNK         0.1150 
     13 H13         1.5729   -3.8855   -0.9436 H         1 UNK         0.1150 
     14 H14         1.5895   -0.7389    1.1803 H         1 UNK         0.0600 
     15 H15         5.8522   -2.5555    1.2171 H         1 UNK         0.1150 
     16 H16         3.6012   -5.2594   -1.2787 H         1 UNK         0.1150 
     17 H17         1.6485   -0.5663   -1.3320 H         1 UNK         0.0600 
     18 H18         0.3966   -1.7750   -1.4289 H         1 UNK         0.0600 
     19 H19        -0.6434   -1.7407    1.5317 H         1 UNK         0.0600 
     20 H20        -0.1455   -3.2114    0.7039 H         1 UNK         0.0600 
     21 H21         0.6004   -2.7589    2.2334 H         1 UNK         0.0600 
     22 H22        -0.5050    0.5562   -1.5961 H         1 UNK         0.0600 
     23 H23        -1.1629   -0.2419   -0.1765 H         1 UNK         0.0600 
     24 H24         0.1380    0.9369   -0.0026 H         1 UNK         0.0600 
     25 H25         5.8413   -5.5096   -0.7894 H         1 UNK         0.4350 
@<TRIPOS>BOND
     1    1    2 ar   
     2    1    3 ar   
     3    1    4 1    
     4    2    5 ar   
     5    2   12 1    
     6    3    6 ar   
     7    3   13 1    
     8    4    7 1    
     9    4    8 1    
    10    4   14 1    
    11    5    9 ar   
    12    5   15 1    
    13    6    9 ar   
    14    6   16 1    
    15    7   10 1    
    16    7   17 1    
    17    7   18 1    
    18    8   19 1    
    19    8   20 1    
    20    8   21 1    
    21    9   11 1    
    22   10   22 1    
    23   10   23 1    
    24   10   24 1    
    25   11   25 1    
@<TRIPOS>SUBSTRUCTURE
     1 UNK         1 GROUP             0       ****    0 ROOT    
