@<TRIPOS>MOLECULE
title: molecule 1
22   22    1
SMALL
USER_CHARGES


@<TRIPOS>ATOM
      1 C1          5.1215   -0.1271    1.0926 C.3       1 UNK        -0.1800 
      2 C2          4.5909    1.2122    0.5576 C.3       1 UNK         0.0550 
      3 C3          5.3704    1.6765   -0.6827 C.3       1 UNK        -0.1800 
      4 C4          3.0919    1.1567    0.2910 C.ar      1 UNK        -0.1150 
      5 C5          2.2138    1.9915    1.0159 C.ar      1 UNK        -0.1150 
      6 C6          2.5645    0.2750   -0.6788 C.ar      1 UNK        -0.1150 
      7 C7          0.8269    1.9455    0.7747 C.ar      1 UNK        -0.1150 
      8 C8          1.1777    0.2287   -0.9202 C.ar      1 UNK        -0.1150 
      9 C9          0.3076    1.0644   -0.1932 C.ar      1 UNK         0.1500 
     10 O10        -1.0364    1.0224   -0.4245 O.3       1 UNK        -0.5850 
     11 H11         4.5962   -0.4203    2.0021 H         1 UNK         0.0600 
     12 H12         4.9999   -0.9294    0.3644 H         1 UNK         0.0600 
     13 H13         6.1826   -0.0594    1.3337 H         1 UNK         0.0600 
     14 H14         4.7604    1.9562    1.3372 H         1 UNK         0.0600 
     15 H15         5.0203    2.6519   -1.0219 H         1 UNK         0.0600 
     16 H16         6.4348    1.7674   -0.4645 H         1 UNK         0.0600 
     17 H17         5.2630    0.9771   -1.5122 H         1 UNK         0.0600 
     18 H18         2.5986    2.6720    1.7613 H         1 UNK         0.1150 
     19 H19         3.2220   -0.3705   -1.2423 H         1 UNK         0.1150 
     20 H20         0.1624    2.5878    1.3340 H         1 UNK         0.1150 
     21 H21         0.7870   -0.4498   -1.6643 H         1 UNK         0.1150 
     22 H22        -1.2797    0.3992   -1.0917 H         1 UNK         0.4350 
@<TRIPOS>BOND
     1    1    2 1    
     2    1   11 1    
     3    1   12 1    
     4    1   13 1    
     5    2    3 1    
     6    2    4 1    
     7    2   14 1    
     8    3   15 1    
     9    3   16 1    
    10    3   17 1    
    11    4    5 ar   
    12    4    6 ar   
    13    5    7 ar   
    14    5   18 1    
    15    6    8 ar   
    16    6   19 1    
    17    7    9 ar   
    18    7   20 1    
    19    8    9 ar   
    20    8   21 1    
    21    9   10 1    
    22   10   22 1    
@<TRIPOS>SUBSTRUCTURE
     1 UNK         1 GROUP             0       ****    0 ROOT    
