@<TRIPOS>MOLECULE
title: molecule 1
17   17    1
SMALL
USER_CHARGES


@<TRIPOS>ATOM
      1 C1          3.4747   -2.3971    0.1642 C.ar      1 UNK        -0.1150 
      2 C2          2.0664   -2.4132    0.1567 C.ar      1 UNK        -0.1150 
      3 C3          4.1819   -1.1734    0.0988 C.ar      1 UNK         0.0900 
      4 C4          1.3443   -1.2058    0.0825 C.ar      1 UNK        -0.1150 
      5 C5          3.4478    0.0339    0.0266 C.ar      1 UNK        -0.1150 
      6 N6          5.6582   -1.1566    0.1066 N.pl3     1 UNK         0.6500 
      7 C7          2.0395    0.0179    0.0191 C.ar      1 UNK        -0.1150 
      8 C8         -0.1704   -1.2228    0.0776 C.3       1 UNK        -0.0650 
      9 O9          6.2512   -2.2288    0.1707 O.co2     1 UNK        -0.3700 
     10 O10         6.2273   -0.0713    0.0486 O.co2     1 UNK        -0.3700 
     11 H11         4.0056   -3.3361    0.2211 H         1 UNK         0.1150 
     12 H12         1.5428   -3.3567    0.2087 H         1 UNK         0.1150 
     13 H13         3.9577    0.9848   -0.0235 H         1 UNK         0.1150 
     14 H14         1.4951    0.9495   -0.0351 H         1 UNK         0.1150 
     15 H15        -0.5477   -2.1367   -0.3823 H         1 UNK         0.0600 
     16 H16        -0.5502   -1.1692    1.0980 H         1 UNK         0.0600 
     17 H17        -0.5672   -0.3754   -0.4822 H         1 UNK         0.0600 
@<TRIPOS>BOND
     1    1    2 ar   
     2    1    3 ar   
     3    1   11 1    
     4    2    4 ar   
     5    2   12 1    
     6    3    5 ar   
     7    3    6 1    
     8    4    7 ar   
     9    4    8 1    
    10    5    7 ar   
    11    5   13 1    
    12    6    9 2    
    13    6   10 1    
    14    7   14 1    
    15    8   15 1    
    16    8   16 1    
    17    8   17 1    
@<TRIPOS>SUBSTRUCTURE
     1 UNK         1 GROUP             0       ****    0 ROOT    
