@<TRIPOS>MOLECULE
title: molecule 1
18   18    1
SMALL
USER_CHARGES


@<TRIPOS>ATOM
      1 C1          5.6368   -0.9422    0.1043 C.2       1 UNK         0.5850 
      2 C2          6.3893   -2.2714    0.1217 C.3       1 UNK        -0.1800 
      3 O3          6.2853    0.1037    0.0984 O.2       1 UNK        -0.4700 
      4 C4          4.1466   -0.9862    0.0954 C.ar      1 UNK        -0.1150 
      5 C5          3.4172    0.2256    0.0793 C.ar      1 UNK        -0.1150 
      6 C6          3.4362   -2.2109    0.1027 C.ar      1 UNK        -0.1150 
      7 C7          2.0088    0.2150    0.0706 C.ar      1 UNK        -0.1150 
      8 C8          2.0274   -2.2204    0.0940 C.ar      1 UNK        -0.1150 
      9 C9          1.3124   -1.0078    0.0779 C.ar      1 UNK         0.1500 
     10 O10        -0.0520   -1.0151    0.0695 O.3       1 UNK        -0.5850 
     11 H11         7.4658   -2.0993    0.1268 H         1 UNK         0.0600 
     12 H12         6.1319   -2.8447    1.0124 H         1 UNK         0.0600 
     13 H13         6.1430   -2.8616   -0.7610 H         1 UNK         0.0600 
     14 H14         3.9307    1.1764    0.0734 H         1 UNK         0.1150 
     15 H15         3.9521   -3.1593    0.1150 H         1 UNK         0.1150 
     16 H16         1.4644    1.1480    0.0583 H         1 UNK         0.1150 
     17 H17         1.4999   -3.1630    0.0997 H         1 UNK         0.1150 
     18 H18        -0.4200   -1.8852    0.0755 H         1 UNK         0.4350 
@<TRIPOS>BOND
     1    1    2 1    
     2    1    3 2    
     3    1    4 1    
     4    2   11 1    
     5    2   12 1    
     6    2   13 1    
     7    4    5 ar   
     8    4    6 ar   
     9    5    7 ar   
    10    5   14 1    
    11    6    8 ar   
    12    6   15 1    
    13    7    9 ar   
    14    7   16 1    
    15    8    9 ar   
    16    8   17 1    
    17    9   10 1    
    18   10   18 1    
@<TRIPOS>SUBSTRUCTURE
     1 UNK         1 GROUP             0       ****    0 ROOT    
