@<TRIPOS>MOLECULE
title: molecule 1
15   15    1
SMALL
USER_CHARGES


@<TRIPOS>ATOM
      1 O1          6.2289   -1.0389    0.1386 O.3       1 UNK        -0.5850 
      2 C2          4.8648   -1.0266    0.1205 C.ar      1 UNK         0.1500 
      3 C3          4.1514   -2.2397    0.1059 C.ar      1 UNK        -0.1150 
      4 C4          4.1670    0.1961    0.1165 C.ar      1 UNK        -0.1150 
      5 C5          2.7430   -2.2309    0.0872 C.ar      1 UNK        -0.1150 
      6 C6          2.7586    0.2047    0.0979 C.ar      1 UNK        -0.1150 
      7 C7          2.0301   -1.0085    0.0830 C.ar      1 UNK         0.0900 
      8 N8          0.5538   -0.9991    0.0634 N.pl3     1 UNK         0.6500 
      9 O9         -0.0340   -2.0759    0.0510 O.co2     1 UNK        -0.3700 
     10 O10        -0.0202    0.0853    0.0605 O.co2     1 UNK        -0.3700 
     11 H11         6.6100   -0.1743    0.1474 H         1 UNK         0.4350 
     12 H12         4.6830   -3.1801    0.1089 H         1 UNK         0.1150 
     13 H13         4.7070    1.1316    0.1277 H         1 UNK         0.1150 
     14 H14         2.2168   -3.1742    0.0762 H         1 UNK         0.1150 
     15 H15         2.2439    1.1544    0.0951 H         1 UNK         0.1150 
@<TRIPOS>BOND
     1    1    2 1    
     2    1   11 1    
     3    2    3 ar   
     4    2    4 ar   
     5    3    5 ar   
     6    3   12 1    
     7    4    6 ar   
     8    4   13 1    
     9    5    7 ar   
    10    5   14 1    
    11    6    7 ar   
    12    6   15 1    
    13    7    8 1    
    14    8    9 2    
    15    8   10 1    
@<TRIPOS>SUBSTRUCTURE
     1 UNK         1 GROUP             0       ****    0 ROOT    
