@<TRIPOS>MOLECULE
title: molecule 1
16   16    1
SMALL
USER_CHARGES


@<TRIPOS>ATOM
      1 C1         -0.1621    0.1290    0.1253 C.2       1 UNK        -0.2300 
      2 C2          0.6322   -0.9549    0.1283 C.2       1 UNK        -0.1150 
      3 C3          2.1057   -0.9634    0.1037 C.ar      1 UNK         0.0000 
      4 C4          2.7775   -2.2056    0.1111 C.ar      1 UNK        -0.1150 
      5 C5          2.8722    0.2256    0.0729 C.ar      1 UNK        -0.1150 
      6 C6          4.1846   -2.2631    0.0884 C.ar      1 UNK        -0.1150 
      7 C7          4.2797    0.1696    0.0501 C.ar      1 UNK        -0.1150 
      8 C8          4.9372   -1.0746    0.0578 C.ar      1 UNK        -0.1150 
      9 H9         -1.2362    0.0172    0.1450 H         1 UNK         0.1150 
     10 H10         0.2269    1.1353    0.1036 H         1 UNK         0.1150 
     11 H11         0.1538   -1.9236    0.1509 H         1 UNK         0.1150 
     12 H12         2.2134   -3.1267    0.1345 H         1 UNK         0.1150 
     13 H13         2.3966    1.1942    0.0663 H         1 UNK         0.1150 
     14 H14         4.6861   -3.2197    0.0944 H         1 UNK         0.1150 
     15 H15         4.8552    1.0832    0.0267 H         1 UNK         0.1150 
     16 H16         6.0163   -1.1171    0.0403 H         1 UNK         0.1150 
@<TRIPOS>BOND
     1    1    2 2    
     2    1    9 1    
     3    1   10 1    
     4    2    3 1    
     5    2   11 1    
     6    3    4 ar   
     7    3    5 ar   
     8    4    6 ar   
     9    4   12 1    
    10    5    7 ar   
    11    5   13 1    
    12    6    8 ar   
    13    6   14 1    
    14    7    8 ar   
    15    7   15 1    
    16    8   16 1    
@<TRIPOS>SUBSTRUCTURE
     1 UNK         1 GROUP             0       ****    0 ROOT    
