@<TRIPOS>MOLECULE
title: molecule 1
14   14    1
SMALL
USER_CHARGES


@<TRIPOS>ATOM
      1 O1         -0.1135    0.0400    0.1112 O.2       1 UNK        -0.4500 
      2 C2          0.5768   -0.9784    0.1118 C.2       1 UNK         0.5650 
      3 C3          2.0564   -0.9851    0.1046 C.ar      1 UNK        -0.1150 
      4 C4          2.7475   -2.2160    0.1060 C.ar      1 UNK        -0.1150 
      5 C5          2.7863    0.2247    0.0964 C.ar      1 UNK        -0.1150 
      6 C6          4.1562   -2.2371    0.0993 C.ar      1 UNK        -0.1150 
      7 C7          4.1948    0.2011    0.0897 C.ar      1 UNK        -0.1150 
      8 C8          4.8798   -1.0292    0.0911 C.ar      1 UNK        -0.1150 
      9 H9          0.1248   -1.9705    0.1178 H         1 UNK         0.0000 
     10 H10         2.2045   -3.1503    0.1123 H         1 UNK         0.1150 
     11 H11         2.2739    1.1762    0.0952 H         1 UNK         0.1150 
     12 H12         4.6817   -3.1807    0.1004 H         1 UNK         0.1150 
     13 H13         4.7498    1.1277    0.0834 H         1 UNK         0.1150 
     14 H14         5.9598   -1.0462    0.0859 H         1 UNK         0.1150 
@<TRIPOS>BOND
     1    1    2 2    
     2    2    3 1    
     3    2    9 1    
     4    3    4 ar   
     5    3    5 ar   
     6    4    6 ar   
     7    4   10 1    
     8    5    7 ar   
     9    5   11 1    
    10    6    8 ar   
    11    6   12 1    
    12    7    8 ar   
    13    7   13 1    
    14    8   14 1    
@<TRIPOS>SUBSTRUCTURE
     1 UNK         1 GROUP             0       ****    0 ROOT    
