@<TRIPOS>MOLECULE
title: molecule 1
18   18    1
SMALL
USER_CHARGES


@<TRIPOS>ATOM
      1 C1         -0.0966   -0.2641    0.8449 C.3       1 UNK        -0.1800 
      2 C2          0.6418   -0.7512   -0.4066 C.3       1 UNK        -0.0050 
      3 C3          2.1378   -0.8636   -0.1828 C.ar      1 UNK        -0.1150 
      4 C4          2.6953   -2.0704    0.2901 C.ar      1 UNK        -0.1150 
      5 C5          2.9783    0.2396   -0.4418 C.ar      1 UNK        -0.1150 
      6 C6          4.0843   -2.1736    0.5005 C.ar      1 UNK        -0.1150 
      7 C7          4.3673    0.1358   -0.2312 C.ar      1 UNK        -0.1150 
      8 C8          4.9205   -1.0707    0.2397 C.ar      1 UNK        -0.1150 
      9 H9         -1.1685   -0.1914    0.6600 H         1 UNK         0.0600 
     10 H10         0.0515   -0.9486    1.6807 H         1 UNK         0.0600 
     11 H11         0.2561    0.7210    1.1516 H         1 UNK         0.0600 
     12 H12         0.2504   -1.7220   -0.7130 H         1 UNK         0.0600 
     13 H13         0.4529   -0.0694   -1.2367 H         1 UNK         0.0600 
     14 H14         2.0591   -2.9192    0.4940 H         1 UNK         0.1150 
     15 H15         2.5600    1.1685   -0.8012 H         1 UNK         0.1150 
     16 H16         4.5080   -3.0987    0.8627 H         1 UNK         0.1150 
     17 H17         5.0081    0.9821   -0.4304 H         1 UNK         0.1150 
     18 H18         5.9855   -1.1500    0.4013 H         1 UNK         0.1150 
@<TRIPOS>BOND
     1    1    2 1    
     2    1    9 1    
     3    1   10 1    
     4    1   11 1    
     5    2    3 1    
     6    2   12 1    
     7    2   13 1    
     8    3    4 ar   
     9    3    5 ar   
    10    4    6 ar   
    11    4   14 1    
    12    5    7 ar   
    13    5   15 1    
    14    6    8 ar   
    15    6   16 1    
    16    7    8 ar   
    17    7   17 1    
    18    8   18 1    
@<TRIPOS>SUBSTRUCTURE
     1 UNK         1 GROUP             0       ****    0 ROOT    
