@<TRIPOS>MOLECULE
title: molecule 1
17   17    1
SMALL
USER_CHARGES


@<TRIPOS>ATOM
      1 C1          4.9216   -1.0515    0.1194 C.ar      1 UNK        -0.1150 
      2 C2          4.2399    0.1800    0.1180 C.ar      1 UNK        -0.1150 
      3 C3          4.1931   -2.2556    0.1043 C.ar      1 UNK        -0.1150 
      4 C4          2.8315    0.2087    0.1016 C.ar      1 UNK        -0.1150 
      5 C5          2.7850   -2.2274    0.0878 C.ar      1 UNK        -0.1150 
      6 C6          2.0921   -0.9983    0.0863 C.ar      1 UNK         0.2000 
      7 N7          0.6901   -1.0276    0.0696 N.pl3     1 UNK        -0.7800 
      8 C8         -0.0872    0.2009    0.0670 C.3       1 UNK         0.0200 
      9 H9          6.0014   -1.0723    0.1321 H         1 UNK         0.1150 
     10 H10         4.7975    1.1049    0.1296 H         1 UNK         0.1150 
     11 H11         4.7140   -3.2018    0.1053 H         1 UNK         0.1150 
     12 H12         2.3360    1.1679    0.1009 H         1 UNK         0.1150 
     13 H13         2.2376   -3.1587    0.0763 H         1 UNK         0.1150 
     14 H14         0.2044   -1.9132    0.0590 H         1 UNK         0.3800 
     15 H15        -1.1517   -0.0333    0.0532 H         1 UNK         0.0600 
     16 H16         0.1182    0.7920    0.9601 H         1 UNK         0.0600 
     17 H17         0.1391    0.8016   -0.8145 H         1 UNK         0.0600 
@<TRIPOS>BOND
     1    1    2 ar   
     2    1    3 ar   
     3    1    9 1    
     4    2    4 ar   
     5    2   10 1    
     6    3    5 ar   
     7    3   11 1    
     8    4    6 ar   
     9    4   12 1    
    10    5    6 ar   
    11    5   13 1    
    12    6    7 1    
    13    7    8 1    
    14    7   14 1    
    15    8   15 1    
    16    8   16 1    
    17    8   17 1    
@<TRIPOS>SUBSTRUCTURE
     1 UNK         1 GROUP             0       ****    0 ROOT    
