@<TRIPOS>MOLECULE
title: molecule 1
28   29    1
SMALL
USER_CHARGES


@<TRIPOS>ATOM
      1 O1          6.0574   -0.3520    0.5844 O.2       1 UNK        -0.6163 
      2 C2          5.9608   -1.5028    0.1601 C.2       1 UNK         0.7661 
      3 N3          4.7973   -2.1372   -0.0703 N.am      1 UNK        -0.4727 
      4 N4          7.0046   -2.3130   -0.0914 N.am      1 UNK        -0.4727 
      5 C5          3.4732   -1.6344    0.0540 C.ar      1 UNK         0.1066 
      6 C6          8.3933   -2.0248    0.0080 C.ar      1 UNK         0.1066 
      7 C7          2.4385   -2.5772    0.2311 C.ar      1 UNK        -0.1150 
      8 C8          3.1458   -0.2590   -0.0346 C.ar      1 UNK        -0.1150 
      9 C9          9.2692   -3.1164    0.1798 C.ar      1 UNK        -0.1150 
     10 C10         8.9317   -0.7195   -0.1003 C.ar      1 UNK        -0.1150 
     11 C11         1.0992   -2.1566    0.3450 C.ar      1 UNK        -0.1150 
     12 C12         1.8057    0.1601    0.0790 C.ar      1 UNK        -0.1150 
     13 C13        10.6589   -2.9096    0.2700 C.ar      1 UNK        -0.1150 
     14 C14        10.3225   -0.5107   -0.0111 C.ar      1 UNK         0.1800 
     15 C15         0.7823   -0.7871    0.2717 C.ar      1 UNK         0.1800 
     16 C16        11.1895   -1.6087    0.1781 C.ar      1 UNK         0.1800 
     17 Cl17       10.9435    1.0964   -0.1431 Cl        1 UNK        -0.1800 
     18 Cl18       -0.8583   -0.2711    0.4102 Cl        1 UNK        -0.1800 
     19 Cl19       12.8988   -1.3832    0.2919 Cl        1 UNK        -0.1800 
     20 H20         4.8628   -3.1131   -0.3174 H         1 UNK         0.2912 
     21 H21         6.7809   -3.2663   -0.3342 H         1 UNK         0.2912 
     22 H22         2.6680   -3.6314    0.2869 H         1 UNK         0.1150 
     23 H23         3.9031    0.4911   -0.2024 H         1 UNK         0.1150 
     24 H24         8.8781   -4.1212    0.2503 H         1 UNK         0.1150 
     25 H25         8.2959    0.1367   -0.2656 H         1 UNK         0.1150 
     26 H26         0.3157   -2.8864    0.4871 H         1 UNK         0.1150 
     27 H27         1.5640    1.2107    0.0128 H         1 UNK         0.1150 
     28 H28        11.3192   -3.7531    0.4089 H         1 UNK         0.1150 
@<TRIPOS>BOND
     1    1    2 2    
     2    2    3 am   BACKBONE|DICT|INTERRES
     3    2    4 am   BACKBONE|DICT|INTERRES
     4    3    5 1    
     5    3   20 1    
     6    4    6 1    
     7    4   21 1    
     8    5    7 ar   
     9    5    8 ar   
    10    6    9 ar   
    11    6   10 ar   
    12    7   11 ar   
    13    7   22 1    
    14    8   12 ar   
    15    8   23 1    
    16    9   13 ar   
    17    9   24 1    
    18   10   14 ar   
    19   10   25 1    
    20   11   15 ar   
    21   11   26 1    
    22   12   15 ar   
    23   12   27 1    
    24   13   16 ar   
    25   13   28 1    
    26   14   16 ar   
    27   14   17 1    
    28   15   18 1    
    29   16   19 1    
@<TRIPOS>SUBSTRUCTURE
     1 UNK         1 GROUP             0       ****    0 ROOT    
