@<TRIPOS>MOLECULE
title: molecule 1
23   24    1
SMALL
USER_CHARGES


@<TRIPOS>ATOM
      1 C1          2.1630   -1.0350   -1.1002 C.ar      1 UNK        -0.1150 
      2 C2          0.9598   -0.3077   -1.1860 C.ar      1 UNK        -0.1150 
      3 C3          2.3915   -1.9008   -0.0085 C.ar      1 UNK         0.0850 
      4 C4         -0.0204   -0.4468   -0.1842 C.ar      1 UNK        -0.1150 
      5 C5          1.4051   -2.0423    0.9884 C.ar      1 UNK        -0.1150 
      6 O6          3.5540   -2.6211    0.0867 O.3       1 UNK        -0.1700 
      7 C7          0.2019   -1.3149    0.9024 C.ar      1 UNK        -0.1150 
      8 C8          4.7226   -1.9132    0.2004 C.ar      1 UNK         0.0850 
      9 C9          5.7078   -2.0373   -0.8000 C.ar      1 UNK        -0.1150 
     10 C10         4.9581   -1.0777    1.3140 C.ar      1 UNK        -0.1150 
     11 C11         6.9171   -1.3224   -0.6954 C.ar      1 UNK        -0.1150 
     12 C12         6.1674   -0.3630    1.4183 C.ar      1 UNK        -0.1150 
     13 C13         7.1466   -0.4844    0.4131 C.ar      1 UNK        -0.1150 
     14 H14         2.9111   -0.9274   -1.8719 H         1 UNK         0.1150 
     15 H15         0.7885    0.3559   -2.0208 H         1 UNK         0.1150 
     16 H16        -0.9432    0.1107   -0.2502 H         1 UNK         0.1150 
     17 H17         1.5734   -2.7082    1.8220 H         1 UNK         0.1150 
     18 H18        -0.5506   -1.4236    1.6696 H         1 UNK         0.1150 
     19 H19         5.5341   -2.6801   -1.6504 H         1 UNK         0.1150 
     20 H20         4.2109   -0.9838    2.0883 H         1 UNK         0.1150 
     21 H21         7.6687   -1.4176   -1.4652 H         1 UNK         0.1150 
     22 H22         6.3441    0.2774    2.2699 H         1 UNK         0.1150 
     23 H23         8.0739    0.0635    0.4934 H         1 UNK         0.1150 
@<TRIPOS>BOND
     1    1    2 ar   
     2    1    3 ar   
     3    1   14 1    
     4    2    4 ar   
     5    2   15 1    
     6    3    5 ar   
     7    3    6 1    
     8    4    7 ar   
     9    4   16 1    
    10    5    7 ar   
    11    5   17 1    
    12    6    8 1    
    13    7   18 1    
    14    8    9 ar   
    15    8   10 ar   
    16    9   11 ar   
    17    9   19 1    
    18   10   12 ar   
    19   10   20 1    
    20   11   13 ar   
    21   11   21 1    
    22   12   13 ar   
    23   12   22 1    
    24   13   23 1    
@<TRIPOS>SUBSTRUCTURE
     1 UNK         1 GROUP             0       ****    0 ROOT    
