@<TRIPOS>MOLECULE
title: molecule 1
23   24    1
SMALL
USER_CHARGES


@<TRIPOS>ATOM
      1 Br1        -0.5417   -2.7790    0.3433 Br        1 UNK        -0.2000 
      2 C2          1.1140   -1.8430    0.2801 C.ar      1 UNK         0.2000 
      3 C3          2.0640   -2.0221    1.3044 C.ar      1 UNK        -0.1150 
      4 C4          1.3890   -0.9696   -0.7902 C.ar      1 UNK        -0.1150 
      5 C5          3.2896   -1.3295    1.2576 C.ar      1 UNK        -0.1150 
      6 C6          2.6146   -0.2769   -0.8372 C.ar      1 UNK        -0.1150 
      7 C7          3.5707   -0.4586    0.1825 C.ar      1 UNK         0.0850 
      8 O8          4.7556    0.2283    0.1251 O.3       1 UNK        -0.1700 
      9 C9          5.9052   -0.5124    0.0304 C.ar      1 UNK         0.0850 
     10 C10         6.1458   -1.3361   -1.0909 C.ar      1 UNK        -0.1150 
     11 C11         6.8664   -0.4347    1.0585 C.ar      1 UNK        -0.1150 
     12 C12         7.3356   -2.0853   -1.1755 C.ar      1 UNK        -0.1150 
     13 C13         8.0562   -1.1840    0.9737 C.ar      1 UNK        -0.1150 
     14 C14         8.2904   -2.0102   -0.1427 C.ar      1 UNK        -0.1150 
     15 H15         1.8529   -2.6898    2.1267 H         1 UNK         0.1150 
     16 H16         0.6601   -0.8302   -1.5749 H         1 UNK         0.1150 
     17 H17         4.0144   -1.4677    2.0465 H         1 UNK         0.1150 
     18 H18         2.8233    0.3931   -1.6583 H         1 UNK         0.1150 
     19 H19         5.4175   -1.3945   -1.8864 H         1 UNK         0.1150 
     20 H20         6.6890    0.1990    1.9150 H         1 UNK         0.1150 
     21 H21         7.5162   -2.7166   -2.0331 H         1 UNK         0.1150 
     22 H22         8.7892   -1.1243    1.7647 H         1 UNK         0.1150 
     23 H23         9.2029   -2.5845   -0.2078 H         1 UNK         0.1150 
@<TRIPOS>BOND
     1    1    2 1    
     2    2    3 ar   
     3    2    4 ar   
     4    3    5 ar   
     5    3   15 1    
     6    4    6 ar   
     7    4   16 1    
     8    5    7 ar   
     9    5   17 1    
    10    6    7 ar   
    11    6   18 1    
    12    7    8 1    
    13    8    9 1    
    14    9   10 ar   
    15    9   11 ar   
    16   10   12 ar   
    17   10   19 1    
    18   11   13 ar   
    19   11   20 1    
    20   12   14 ar   
    21   12   21 1    
    22   13   14 ar   
    23   13   22 1    
    24   14   23 1    
@<TRIPOS>SUBSTRUCTURE
     1 UNK         1 GROUP             0       ****    0 ROOT    
