@<TRIPOS>MOLECULE
title: molecule 1
29   29    1
SMALL
USER_CHARGES


@<TRIPOS>ATOM
      1 N1         -0.7649    1.4610   -0.1686 N.ar      1 UNK        -0.9262 
      2 C2         -1.1014    0.1694   -0.1392 C.ar      1 UNK         1.1262 
      3 C3          0.5259    1.6598    0.1107 C.ar      1 UNK         1.0787 
      4 N4         -0.2980   -0.8673    0.1293 N.ar      1 UNK        -0.9262 
      5 N5         -2.4291   -0.0915   -0.4232 N.pl3     1 UNK        -0.7800 
      6 N6          1.4537    0.7407    0.3986 N.ar      1 UNK        -0.9262 
      7 S7          1.0385    3.3712    0.0878 S.3       1 UNK        -0.3200 
      8 C8          0.9634   -0.5008    0.3876 C.ar      1 UNK         1.1262 
      9 C9         -3.0435   -1.4126   -0.4220 C.3       1 UNK         0.0800 
     10 C10         2.8067    3.2745    0.4943 C.3       1 UNK        -0.0125 
     11 N11         1.8829   -1.4908    0.6807 N.pl3     1 UNK        -0.7800 
     12 C12        -3.3920   -1.8893    0.9936 C.3       1 UNK        -0.1800 
     13 C13         1.5999   -2.9199    0.6983 C.3       1 UNK         0.0800 
     14 C14         1.5948   -3.5279   -0.7098 C.3       1 UNK        -0.1800 
     15 H15        -3.0146    0.7064   -0.6214 H         1 UNK         0.3800 
     16 H16        -3.9501   -1.3664   -1.0255 H         1 UNK         0.0600 
     17 H17        -2.3832   -2.1295   -0.9114 H         1 UNK         0.0600 
     18 H18         3.2392    4.2747    0.5100 H         1 UNK         0.0600 
     19 H19         2.9528    2.8242    1.4764 H         1 UNK         0.0600 
     20 H20         3.3417    2.6830   -0.2490 H         1 UNK         0.0600 
     21 H21         2.8273   -1.1899    0.8710 H         1 UNK         0.3800 
     22 H22        -3.8714   -2.8678    0.9636 H         1 UNK         0.0600 
     23 H23        -2.5008   -1.9775    1.6155 H         1 UNK         0.0600 
     24 H24        -4.0776   -1.1984    1.4849 H         1 UNK         0.0600 
     25 H25         2.3616   -3.4099    1.3050 H         1 UNK         0.0600 
     26 H26         0.6456   -3.1033    1.1936 H         1 UNK         0.0600 
     27 H27         1.4048   -4.6003   -0.6659 H         1 UNK         0.0600 
     28 H28         0.8207   -3.0811   -1.3344 H         1 UNK         0.0600 
     29 H29         2.5540   -3.3805   -1.2067 H         1 UNK         0.0600 
@<TRIPOS>BOND
     1    1    2 ar   
     2    1    3 ar   
     3    2    4 ar   
     4    2    5 1    
     5    3    6 ar   
     6    3    7 1    
     7    4    8 ar   
     8    5    9 1    
     9    5   15 1    
    10    6    8 ar   
    11    7   10 1    
    12    8   11 1    
    13    9   12 1    
    14    9   16 1    
    15    9   17 1    
    16   10   18 1    
    17   10   19 1    
    18   10   20 1    
    19   11   13 1    
    20   11   21 1    
    21   12   22 1    
    22   12   23 1    
    23   12   24 1    
    24   13   14 1    
    25   13   25 1    
    26   13   26 1    
    27   14   27 1    
    28   14   28 1    
    29   14   29 1    
@<TRIPOS>SUBSTRUCTURE
     1 UNK         1 GROUP             0       ****    0 ROOT    
