@<TRIPOS>MOLECULE
title: molecule 1
28   29    1
SMALL
USER_CHARGES


@<TRIPOS>ATOM
      1 N1          3.6116   -1.8503    0.4635 N.pl3     1 UNK        -0.3818 
      2 C2          2.2428   -1.5680    0.2089 C.ar      1 UNK         0.1066 
      3 C3          4.7159   -1.2717   -0.0796 C.2       1 UNK         0.4442 
      4 C4          1.3785   -2.6466   -0.0716 C.ar      1 UNK        -0.1150 
      5 C5          1.7133   -0.2610    0.3157 C.ar      1 UNK        -0.1150 
      6 S6          4.7382   -0.1227   -1.3027 S.2       1 UNK        -0.4762 
      7 N7          5.8002   -1.8497    0.5031 N.pl3     1 UNK        -0.3818 
      8 C8          0.0055   -2.4179   -0.2878 C.ar      1 UNK        -0.1150 
      9 C9          0.3402   -0.0337    0.0993 C.ar      1 UNK        -0.1150 
     10 C10         7.1772   -1.5666    0.2984 C.ar      1 UNK         0.1066 
     11 C11        -0.5131   -1.1112   -0.2068 C.ar      1 UNK        -0.1150 
     12 C12         8.0516   -2.6445    0.0486 C.ar      1 UNK        -0.1150 
     13 C13         7.7018   -0.2594    0.4253 C.ar      1 UNK        -0.1150 
     14 C14         9.4314   -2.4150   -0.1176 C.ar      1 UNK        -0.1150 
     15 C15         9.0817   -0.0313    0.2589 C.ar      1 UNK        -0.1150 
     16 C16         9.9461   -1.1081   -0.0169 C.ar      1 UNK        -0.1150 
     17 H17         3.7777   -2.6453    1.0621 H         1 UNK         0.2912 
     18 H18         1.7666   -3.6531   -0.1299 H         1 UNK         0.1150 
     19 H19         2.3542    0.5713    0.5674 H         1 UNK         0.1150 
     20 H20         5.6130   -2.6449    1.0953 H         1 UNK         0.2912 
     21 H21        -0.6506   -3.2458   -0.5129 H         1 UNK         0.1150 
     22 H22        -0.0591    0.9670    0.1737 H         1 UNK         0.1150 
     23 H23        -1.5662   -0.9366   -0.3713 H         1 UNK         0.1150 
     24 H24         7.6665   -3.6512   -0.0245 H         1 UNK         0.1150 
     25 H25         7.0517    0.5724    0.6542 H         1 UNK         0.1150 
     26 H26        10.0957   -3.2424   -0.3194 H         1 UNK         0.1150 
     27 H27         9.4775    0.9696    0.3484 H         1 UNK         0.1150 
     28 H28        11.0044   -0.9328   -0.1431 H         1 UNK         0.1150 
@<TRIPOS>BOND
     1    1    2 1    
     2    1    3 1    
     3    1   17 1    
     4    2    4 ar   
     5    2    5 ar   
     6    3    6 2    
     7    3    7 1    
     8    4    8 ar   
     9    4   18 1    
    10    5    9 ar   
    11    5   19 1    
    12    7   10 1    
    13    7   20 1    
    14    8   11 ar   
    15    8   21 1    
    16    9   11 ar   
    17    9   22 1    
    18   10   12 ar   
    19   10   13 ar   
    20   11   23 1    
    21   12   14 ar   
    22   12   24 1    
    23   13   15 ar   
    24   13   25 1    
    25   14   16 ar   
    26   14   26 1    
    27   15   16 ar   
    28   15   27 1    
    29   16   28 1    
@<TRIPOS>SUBSTRUCTURE
     1 UNK         1 GROUP             0       ****    0 ROOT    
