@<TRIPOS>MOLECULE
title: molecule 1
23   26    1
SMALL
USER_CHARGES


@<TRIPOS>ATOM
      1 C1          1.8997   -1.7684    1.4461 C.2       1 UNK         0.1200 
      2 C2          2.5225   -0.9728    0.3068 C.3       1 UNK         0.2000 
      3 C3          1.7082   -3.0204    1.0153 C.2       1 UNK         0.1200 
      4 Cl4         1.3457   -0.9839    2.8802 Cl        1 UNK        -0.1200 
      5 C5          3.9642   -1.4555    0.0022 C.3       1 UNK        -0.0600 
      6 C6          1.8238   -1.7345   -0.8921 C.3       1 UNK         0.2716 
      7 Cl7         2.2957    0.7970    0.2934 Cl        1 UNK        -0.2000 
      8 C8          2.2931   -3.1337   -0.3901 C.3       1 UNK         0.2000 
      9 Cl9         0.8809   -4.3458    1.7498 Cl        1 UNK        -0.1200 
     10 C10         3.8171   -2.9733   -0.0940 C.3       1 UNK        -0.0600 
     11 C11         5.3597   -1.2990    0.5988 C.3       1 UNK         0.0970 
     12 Cl12        2.3729   -1.3630   -2.5639 Cl        1 UNK        -0.1358 
     13 Cl13        0.0345   -1.5472   -0.8832 Cl        1 UNK        -0.1358 
     14 Cl14        1.8236   -4.5517   -1.3662 Cl        1 UNK        -0.2000 
     15 C15         5.0684   -3.3923   -0.8170 C.3       1 UNK         0.1162 
     16 C16         6.0715   -2.4223   -0.2020 C.3       1 UNK         0.1162 
     17 Cl17        5.3895   -1.6260    2.3536 Cl        1 UNK        -0.2000 
     18 O18         5.8322   -2.4793   -1.6248 O.3       1 UNK        -0.3524 
     19 H19         4.1660   -0.9849   -0.9560 H         1 UNK         0.0600 
     20 H20         3.9813   -3.4475    0.8784 H         1 UNK         0.0600 
     21 H21         5.8062   -0.3217    0.4116 H         1 UNK         0.1030 
     22 H22         5.3324   -4.4462   -0.8767 H         1 UNK         0.0600 
     23 H23         7.0542   -2.7649    0.1155 H         1 UNK         0.0600 
@<TRIPOS>BOND
     1    1    2 1    
     2    1    3 2    
     3    1    4 1    
     4    2    5 1    
     5    2    6 1    
     6    2    7 1    
     7    3    8 1    
     8    3    9 1    
     9    5   10 1    
    10    5   11 1    
    11    5   19 1    
    12    6    8 1    
    13    6   12 1    
    14    6   13 1    
    15    8   10 1    
    16    8   14 1    
    17   10   15 1    
    18   10   20 1    
    19   11   16 1    
    20   11   17 1    
    21   11   21 1    
    22   15   16 1    
    23   15   18 1    
    24   15   22 1    
    25   16   18 1    
    26   16   23 1    
@<TRIPOS>SUBSTRUCTURE
     1 UNK         1 GROUP             0       ****    0 ROOT    
