@<TRIPOS>MOLECULE
title: molecule 1
15   14    1
SMALL
USER_CHARGES


@<TRIPOS>ATOM
      1 P1          2.2183   -1.0631    0.0161 P.3       1 UNK         1.1643 
      2 O2          3.0091   -0.1313    0.8674 O.2       1 UNK        -0.6661 
      3 S3          0.1152   -0.8379    0.2948 S.3       1 UNK        -0.1050 
      4 N4          2.5503   -0.9879   -1.6498 N.pl3     1 UNK        -0.8011 
      5 O5          2.4423   -2.6406    0.3364 O.3       1 UNK        -0.4611 
      6 C6         -0.5103   -2.1527   -0.7836 C.3       1 UNK        -0.1725 
      7 C7          3.7476   -3.1792    0.3963 C.3       1 UNK         0.0929 
      8 H8          3.5207   -1.0406   -1.9511 H         1 UNK         0.2943 
      9 H9          1.9000   -1.4341   -2.2926 H         1 UNK         0.2943 
     10 H10        -1.5990   -2.1837   -0.7445 H         1 UNK         0.0600 
     11 H11        -0.2067   -1.9777   -1.8154 H         1 UNK         0.0600 
     12 H12        -0.1253   -3.1216   -0.4658 H         1 UNK         0.0600 
     13 H13         3.7012   -4.2381    0.6500 H         1 UNK         0.0600 
     14 H14         4.2541   -3.0795   -0.5640 H         1 UNK         0.0600 
     15 H15         4.3404   -2.6709    1.1575 H         1 UNK         0.0600 
@<TRIPOS>BOND
     1    1    2 2    
     2    1    3 1    
     3    1    4 1    
     4    1    5 1    
     5    3    6 1    
     6    4    8 1    
     7    4    9 1    
     8    5    7 1    
     9    6   10 1    
    10    6   11 1    
    11    6   12 1    
    12    7   13 1    
    13    7   14 1    
    14    7   15 1    
@<TRIPOS>SUBSTRUCTURE
     1 UNK         1 GROUP             0       ****    0 ROOT    
