@<TRIPOS>MOLECULE
title: molecule 1
14   14    1
SMALL
USER_CHARGES


@<TRIPOS>ATOM
      1 S1         -0.3824   -1.6539    0.0606 S.2       1 UNK        -0.0075 
      2 C2          1.1428   -2.1062    0.1470 C.1       1 UNK         0.2438 
      3 N3          2.3172   -2.4360    0.1272 N.2       1 UNK        -0.3151 
      4 C4          3.5445   -1.7755    0.1138 C.ar      1 UNK         0.0788 
      5 C5          4.7299   -2.5398    0.0907 C.ar      1 UNK        -0.1150 
      6 C6          3.6332   -0.3636    0.1226 C.ar      1 UNK        -0.1150 
      7 C7          5.9879   -1.9061    0.0766 C.ar      1 UNK        -0.1150 
      8 C8          4.8911    0.2702    0.1084 C.ar      1 UNK        -0.1150 
      9 C9          6.0689   -0.5006    0.0854 C.ar      1 UNK        -0.1150 
     10 H10         4.6774   -3.6189    0.0837 H         1 UNK         0.1150 
     11 H11         2.7392    0.2427    0.1402 H         1 UNK         0.1150 
     12 H12         6.8905   -2.4989    0.0589 H         1 UNK         0.1150 
     13 H13         4.9519    1.3485    0.1152 H         1 UNK         0.1150 
     14 H14         7.0333   -0.0145    0.0746 H         1 UNK         0.1150 
@<TRIPOS>BOND
     1    1    2 2    
     2    2    3 2    
     3    3    4 1    
     4    4    5 ar   
     5    4    6 ar   
     6    5    7 ar   
     7    5   10 1    
     8    6    8 ar   
     9    6   11 1    
    10    7    9 ar   
    11    7   12 1    
    12    8    9 ar   
    13    8   13 1    
    14    9   14 1    
@<TRIPOS>SUBSTRUCTURE
     1 UNK         1 GROUP             0       ****    0 ROOT    
