@<TRIPOS>MOLECULE
title: molecule 1
18   18    1
SMALL
USER_CHARGES


@<TRIPOS>ATOM
      1 N1          0.1043   -2.8456    0.1966 N.pl3     1 UNK        -0.7839 
      2 C2          1.0621   -1.9928   -0.2134 C.2       1 UNK         0.4157 
      3 S3          0.7322   -0.7486   -1.2719 S.2       1 UNK        -0.4762 
      4 N4          2.2513   -2.3491    0.3391 N.pl3     1 UNK        -0.3818 
      5 C5          3.5154   -1.7155    0.2025 C.ar      1 UNK         0.1066 
      6 C6          4.6365   -2.5210   -0.0863 C.ar      1 UNK        -0.1150 
      7 C7          3.6940   -0.3309    0.4296 C.ar      1 UNK        -0.1150 
      8 C8          5.9174   -1.9444   -0.1912 C.ar      1 UNK        -0.1150 
      9 C9          4.9753    0.2445    0.3246 C.ar      1 UNK        -0.1150 
     10 C10         6.0864   -0.5610    0.0099 C.ar      1 UNK        -0.1150 
     11 H11        -0.8390   -2.7162   -0.1404 H         1 UNK         0.4142 
     12 H12         0.3273   -3.5945    0.8349 H         1 UNK         0.4142 
     13 H13         2.2670   -3.2321    0.8268 H         1 UNK         0.2912 
     14 H14         4.5174   -3.5842   -0.2369 H         1 UNK         0.1150 
     15 H15         2.8539    0.2956    0.6908 H         1 UNK         0.1150 
     16 H16         6.7710   -2.5643   -0.4230 H         1 UNK         0.1150 
     17 H17         5.1060    1.3035    0.4914 H         1 UNK         0.1150 
     18 H18         7.0690   -0.1194   -0.0692 H         1 UNK         0.1150 
@<TRIPOS>BOND
     1    1    2 1    
     2    1   11 1    
     3    1   12 1    
     4    2    3 2    
     5    2    4 1    
     6    4    5 1    
     7    4   13 1    
     8    5    6 ar   
     9    5    7 ar   
    10    6    8 ar   
    11    6   14 1    
    12    7    9 ar   
    13    7   15 1    
    14    8   10 ar   
    15    8   16 1    
    16    9   10 ar   
    17    9   17 1    
    18   10   18 1    
@<TRIPOS>SUBSTRUCTURE
     1 UNK         1 GROUP             0       ****    0 ROOT    
