@<TRIPOS>MOLECULE
title: molecule 1
20   20    1
SMALL
USER_CHARGES


@<TRIPOS>ATOM
      1 N1          1.9933   -1.2221    0.5739 N.pl3     1 UNK        -0.7800 
      2 C2          3.3684   -1.0887    0.3258 C.ar      1 UNK         0.2000 
      3 C3          1.1004   -0.0746    0.6617 C.3       1 UNK         0.0800 
      4 C4          4.1319   -2.2671    0.1858 C.ar      1 UNK        -0.1150 
      5 C5          4.0157    0.1655    0.2141 C.ar      1 UNK        -0.1150 
      6 C6          0.7198    0.4752   -0.7191 C.3       1 UNK        -0.1800 
      7 C7          5.5166   -2.1998   -0.0631 C.ar      1 UNK        -0.1150 
      8 C8          5.4006    0.2328   -0.0351 C.ar      1 UNK        -0.1150 
      9 C9          6.1520   -0.9491   -0.1739 C.ar      1 UNK        -0.1150 
     10 H10         1.5900   -2.1463    0.6319 H         1 UNK         0.3800 
     11 H11         0.1968   -0.3956    1.1804 H         1 UNK         0.0600 
     12 H12         1.5413    0.7050    1.2831 H         1 UNK         0.0600 
     13 H13         3.6569   -3.2339    0.2686 H         1 UNK         0.1150 
     14 H14         3.4687    1.0902    0.3148 H         1 UNK         0.1150 
     15 H15         0.0306    1.3142   -0.6229 H         1 UNK         0.0600 
     16 H16         1.5931    0.8270   -1.2685 H         1 UNK         0.0600 
     17 H17         0.2300   -0.2881   -1.3244 H         1 UNK         0.0600 
     18 H18         6.0907   -3.1085   -0.1689 H         1 UNK         0.1150 
     19 H19         5.8867    1.1935   -0.1197 H         1 UNK         0.1150 
     20 H20         7.2138   -0.8963   -0.3649 H         1 UNK         0.1150 
@<TRIPOS>BOND
     1    1    2 1    
     2    1    3 1    
     3    1   10 1    
     4    2    4 ar   
     5    2    5 ar   
     6    3    6 1    
     7    3   11 1    
     8    3   12 1    
     9    4    7 ar   
    10    4   13 1    
    11    5    8 ar   
    12    5   14 1    
    13    6   15 1    
    14    6   16 1    
    15    6   17 1    
    16    7    9 ar   
    17    7   18 1    
    18    8    9 ar   
    19    8   19 1    
    20    9   20 1    
@<TRIPOS>SUBSTRUCTURE
     1 UNK         1 GROUP             0       ****    0 ROOT    
