@<TRIPOS>MOLECULE
title: molecule 1
26   28    1
SMALL
USER_CHARGES


@<TRIPOS>ATOM
      1 C1         -2.3984    2.3457   -0.1937 C.3       1 UNK         0.2000 
      2 Cl2        -2.6372    1.1219    1.0841 Cl        1 UNK        -0.2000 
      3 C3         -1.0823    2.1825   -1.0079 C.3       1 UNK        -0.0600 
      4 C4         -2.2255    3.8005    0.3269 C.3       1 UNK         0.2716 
      5 C5         -3.5408    2.5663   -1.1678 C.2       1 UNK         0.1200 
      6 C6         -0.9580    3.5457   -1.7585 C.3       1 UNK        -0.0600 
      7 C7         -0.9641    0.9587   -1.9334 C.3       1 UNK         0.0511 
      8 Cl8        -0.7859    4.0780    1.3587 Cl        1 UNK        -0.1358 
      9 Cl9        -3.6688    4.4021    1.2113 Cl        1 UNK        -0.1358 
     10 C10        -2.1155    4.3745   -1.1112 C.3       1 UNK         0.2000 
     11 Cl11       -4.8575    1.4550   -1.2771 Cl        1 UNK        -0.1200 
     12 C12        -3.3825    3.7749   -1.6993 C.2       1 UNK         0.1200 
     13 C13         0.4863    4.0864   -1.7154 C.3       1 UNK         0.0511 
     14 O14        -0.0074    1.1210   -2.9782 O.3       1 UNK        -0.3861 
     15 Cl15       -1.9636    6.1521   -1.2179 Cl        1 UNK        -0.2000 
     16 Cl16       -4.4273    4.6971   -2.7186 Cl        1 UNK        -0.1200 
     17 O17         1.2960    3.4577   -2.7021 O.3       1 UNK        -0.3861 
     18 S18         1.5122    1.7774   -2.5991 S.3       1 UNK         1.3660 
     19 O19         2.4143    1.4060   -3.6995 O.2       1 UNK        -0.4680 
     20 O20         1.8577    1.4288   -1.2116 O.2       1 UNK        -0.4680 
     21 H21        -0.2825    2.0911   -0.2763 H         1 UNK         0.0600 
     22 H22        -1.2042    3.4312   -2.8167 H         1 UNK         0.0600 
     23 H23        -1.9192    0.7593   -2.4187 H         1 UNK         0.0600 
     24 H24        -0.7236    0.0667   -1.3542 H         1 UNK         0.0600 
     25 H25         0.9522    3.9827   -0.7366 H         1 UNK         0.0600 
     26 H26         0.4958    5.1503   -1.9482 H         1 UNK         0.0600 
@<TRIPOS>BOND
     1    1    2 1    
     2    1    3 1    
     3    1    4 1    
     4    1    5 1    
     5    3    6 1    
     6    3    7 1    
     7    3   21 1    
     8    4    8 1    
     9    4    9 1    
    10    4   10 1    
    11    5   11 1    
    12    5   12 2    
    13    6   10 1    
    14    6   13 1    
    15    6   22 1    
    16    7   14 1    
    17    7   23 1    
    18    7   24 1    
    19   10   12 1    
    20   10   15 1    
    21   12   16 1    
    22   13   17 1    
    23   13   25 1    
    24   13   26 1    
    25   14   18 1    
    26   17   18 1    
    27   18   19 2    
    28   18   20 2    
@<TRIPOS>SUBSTRUCTURE
     1 UNK         1 GROUP             0       ****    0 ROOT    
