@<TRIPOS>MOLECULE
title: molecule 1
18   18    1
SMALL
USER_CHARGES


@<TRIPOS>ATOM
      1 O1          0.7018   -1.0228    0.1303 O.3       1 UNK        -0.2850 
      2 C2          2.0789   -0.9655    0.1123 C.ar      1 UNK         0.0850 
      3 C3         -0.0184    0.2010    0.1168 C.3       1 UNK         0.1100 
      4 C4          2.7713   -2.1938    0.1263 C.ar      1 UNK        -0.1150 
      5 C5          2.8263    0.2392    0.0811 C.ar      1 UNK        -0.1150 
      6 C6          4.1789   -2.2295    0.1096 C.ar      1 UNK        -0.1150 
      7 C7          4.2346    0.2048    0.0644 C.ar      1 UNK        -0.1150 
      8 C8          4.9134   -1.0288    0.0786 C.ar      1 UNK         0.1800 
      9 N9          6.3066   -1.0611    0.0620 N.pl3     1 UNK        -0.9000 
     10 H10        -1.0875   -0.0106    0.1338 H         1 UNK         0.0300 
     11 H11         0.2110    0.8086    0.9932 H         1 UNK         0.0300 
     12 H12         0.1891    0.7760   -0.7867 H         1 UNK         0.0300 
     13 H13         2.2159   -3.1199    0.1500 H         1 UNK         0.1150 
     14 H14         2.3429    1.2040    0.0693 H         1 UNK         0.1150 
     15 H15         4.6894   -3.1815    0.1207 H         1 UNK         0.1150 
     16 H16         4.7899    1.1311    0.0406 H         1 UNK         0.1150 
     17 H17         6.8548   -0.2132    0.0399 H         1 UNK         0.3600 
     18 H18         6.8152   -1.9335    0.0719 H         1 UNK         0.3600 
@<TRIPOS>BOND
     1    1    2 1    
     2    1    3 1    
     3    2    4 ar   
     4    2    5 ar   
     5    3   10 1    
     6    3   11 1    
     7    3   12 1    
     8    4    6 ar   
     9    4   13 1    
    10    5    7 ar   
    11    5   14 1    
    12    6    8 ar   
    13    6   15 1    
    14    7    8 ar   
    15    7   16 1    
    16    8    9 1    
    17    9   17 1    
    18    9   18 1    
@<TRIPOS>SUBSTRUCTURE
     1 UNK         1 GROUP             0       ****    0 ROOT    
