@<TRIPOS>MOLECULE
title: molecule 1
19   19    1
SMALL
USER_CHARGES


@<TRIPOS>ATOM
      1 O1          4.8067    0.2414    0.1429 O.3       1 UNK        -0.5850 
      2 C2          3.6349   -0.4602    0.1245 C.ar      1 UNK         0.1500 
      3 C3          3.6421   -1.8730    0.0842 C.ar      1 UNK        -0.1150 
      4 C4          2.4104    0.2370    0.1468 C.ar      1 UNK        -0.1150 
      5 C5          4.9528   -2.6375    0.0611 C.3       1 UNK        -0.0650 
      6 C6          2.4190   -2.5765    0.0658 C.ar      1 UNK        -0.1150 
      7 C7          1.1929   -0.4697    0.1284 C.ar      1 UNK        -0.1150 
      8 C8          1.1941   -1.8785    0.0861 C.ar      1 UNK        -0.1150 
      9 C9         -0.1149   -2.6405    0.0693 C.3       1 UNK        -0.0650 
     10 H10         4.6791    1.1771    0.1700 H         1 UNK         0.4350 
     11 H11         2.3994    1.3166    0.1786 H         1 UNK         0.1150 
     12 H12         4.7870   -3.7147    0.0303 H         1 UNK         0.0600 
     13 H13         5.5375   -2.3593   -0.8161 H         1 UNK         0.0600 
     14 H14         5.5390   -2.4101    0.9517 H         1 UNK         0.0600 
     15 H15         2.4185   -3.6565    0.0364 H         1 UNK         0.1150 
     16 H16         0.2592    0.0732    0.1471 H         1 UNK         0.1150 
     17 H17        -0.9050   -2.0485   -0.3938 H         1 UNK         0.0600 
     18 H18        -0.0163   -3.5693   -0.4935 H         1 UNK         0.0600 
     19 H19        -0.4201   -2.8855    1.0867 H         1 UNK         0.0600 
@<TRIPOS>BOND
     1    1    2 1    
     2    1   10 1    
     3    2    3 ar   
     4    2    4 ar   
     5    3    5 1    
     6    3    6 ar   
     7    4    7 ar   
     8    4   11 1    
     9    5   12 1    
    10    5   13 1    
    11    5   14 1    
    12    6    8 ar   
    13    6   15 1    
    14    7    8 ar   
    15    7   16 1    
    16    8    9 1    
    17    9   17 1    
    18    9   18 1    
    19    9   19 1    
@<TRIPOS>SUBSTRUCTURE
     1 UNK         1 GROUP             0       ****    0 ROOT    
