@<TRIPOS>MOLECULE
title: molecule 1
12   12    1
SMALL
USER_CHARGES


@<TRIPOS>ATOM
      1 Cl1         5.9081   -1.0075    0.1497 Cl        1 UNK        -0.1800 
      2 C2          4.1830   -1.0131    0.1186 C.ar      1 UNK         0.1800 
      3 C3          3.4747    0.2046    0.0905 C.ar      1 UNK        -0.1150 
      4 C4          3.4821   -2.2355    0.1213 C.ar      1 UNK        -0.1150 
      5 C5          2.0660    0.2000    0.0651 C.ar      1 UNK        -0.1150 
      6 C6          2.0735   -2.2401    0.0959 C.ar      1 UNK        -0.1150 
      7 C7          1.3651   -1.0224    0.0678 C.ar      1 UNK         0.1800 
      8 Cl8        -0.3599   -1.0280    0.0367 Cl        1 UNK        -0.1800 
      9 H9          4.0104    1.1425    0.0884 H         1 UNK         0.1150 
     10 H10         4.0235   -3.1699    0.1428 H         1 UNK         0.1150 
     11 H11         1.5246    1.1344    0.0436 H         1 UNK         0.1150 
     12 H12         1.5378   -3.1780    0.0980 H         1 UNK         0.1150 
@<TRIPOS>BOND
     1    1    2 1    
     2    2    3 ar   
     3    2    4 ar   
     4    3    5 ar   
     5    3    9 1    
     6    4    6 ar   
     7    4   10 1    
     8    5    7 ar   
     9    5   11 1    
    10    6    7 ar   
    11    6   12 1    
    12    7    8 1    
@<TRIPOS>SUBSTRUCTURE
     1 UNK         1 GROUP             0       ****    0 ROOT    
