@<TRIPOS>MOLECULE
title: molecule 1
10   10    1
SMALL
USER_CHARGES


@<TRIPOS>ATOM
      1 Cl1         0.1528   -2.0527   -0.3386 Cl        1 UNK        -0.2000 
      2 C2          1.2284   -1.0872    0.7029 C.3       1 UNK        -0.0060 
      3 C3          2.2921   -0.4008   -0.1253 C.3       1 UNK         0.1162 
      4 C4          3.6421   -0.0410    0.4355 C.3       1 UNK         0.0562 
      5 O5          3.4596   -1.1828   -0.4128 O.3       1 UNK        -0.3524 
      6 H6          1.6792   -1.7500    1.4422 H         1 UNK         0.1030 
      7 H7          0.6201   -0.3452    1.2200 H         1 UNK         0.1030 
      8 H8          1.9309    0.1932   -0.9626 H         1 UNK         0.0600 
      9 H9          3.8680   -0.2792    1.4730 H         1 UNK         0.0600 
     10 H10         4.2020    0.7745   -0.0178 H         1 UNK         0.0600 
@<TRIPOS>BOND
     1    1    2 1    
     2    2    3 1    
     3    2    6 1    
     4    2    7 1    
     5    3    4 1    
     6    3    5 1    
     7    3    8 1    
     8    4    5 1    
     9    4    9 1    
    10    4   10 1    
@<TRIPOS>SUBSTRUCTURE
     1 UNK         1 GROUP             0       ****    0 ROOT    
