@<TRIPOS>MOLECULE
title: molecule 1
16   16    1
SMALL
USER_CHARGES


@<TRIPOS>ATOM
      1 O1         -0.0270   -1.0311    0.1102 O.3       1 UNK        -0.5850 
      2 C2          1.3375   -1.0313    0.1013 C.ar      1 UNK         0.1500 
      3 C3          2.0395    0.1872    0.0183 C.ar      1 UNK        -0.1150 
      4 C4          2.0458   -2.2471    0.1755 C.ar      1 UNK        -0.1150 
      5 C5          3.4481    0.1906    0.0089 C.ar      1 UNK        -0.1150 
      6 C6          3.4545   -2.2437    0.1661 C.ar      1 UNK        -0.1150 
      7 C7          4.1595   -1.0251    0.0811 C.ar      1 UNK        -0.1150 
      8 C8          5.6743   -1.0215    0.0741 C.3       1 UNK        -0.0650 
      9 H9         -0.3985   -1.8978    0.1686 H         1 UNK         0.4350 
     10 H10         1.4991    1.1208   -0.0378 H         1 UNK         0.1150 
     11 H11         1.5139   -3.1850    0.2403 H         1 UNK         0.1150 
     12 H12         3.9798    1.1289   -0.0536 H         1 UNK         0.1150 
     13 H13         3.9916   -3.1792    0.2247 H         1 UNK         0.1150 
     14 H14         6.0634   -1.9336   -0.3794 H         1 UNK         0.0600 
     15 H15         6.0587   -0.1730   -0.4927 H         1 UNK         0.0600 
     16 H16         6.0546   -0.9548    1.0935 H         1 UNK         0.0600 
@<TRIPOS>BOND
     1    1    2 1    
     2    1    9 1    
     3    2    3 ar   
     4    2    4 ar   
     5    3    5 ar   
     6    3   10 1    
     7    4    6 ar   
     8    4   11 1    
     9    5    7 ar   
    10    5   12 1    
    11    6    7 ar   
    12    6   13 1    
    13    7    8 1    
    14    8   14 1    
    15    8   15 1    
    16    8   16 1    
@<TRIPOS>SUBSTRUCTURE
     1 UNK         1 GROUP             0       ****    0 ROOT    
