@<TRIPOS>MOLECULE
title: molecule 1
18   18    1
SMALL
USER_CHARGES


@<TRIPOS>ATOM
      1 C1         -0.1260   -1.0262    0.1266 C.3       1 UNK        -0.0650 
      2 C2          1.3886   -1.0248    0.1070 C.ar      1 UNK        -0.1150 
      3 C3          2.0941    0.1887   -0.0278 C.ar      1 UNK        -0.1150 
      4 C4          2.0997   -2.2363    0.2303 C.ar      1 UNK        -0.1150 
      5 C5          3.5026    0.1903   -0.0431 C.ar      1 UNK        -0.1150 
      6 C6          3.5082   -2.2346    0.2150 C.ar      1 UNK        -0.1150 
      7 C7          4.2137   -1.0215    0.0763 C.ar      1 UNK        -0.1150 
      8 C8          5.7284   -1.0194    0.0630 C.3       1 UNK        -0.0650 
      9 H9         -0.5195   -1.9577   -0.2814 H         1 UNK         0.0600 
     10 H10        -0.4886   -0.9182    1.1490 H         1 UNK         0.0600 
     11 H11        -0.5235   -0.2034   -0.4683 H         1 UNK         0.0600 
     12 H12         1.5577    1.1219   -0.1189 H         1 UNK         0.1150 
     13 H13         1.5676   -3.1702    0.3378 H         1 UNK         0.1150 
     14 H14         4.0347    1.1248   -0.1458 H         1 UNK         0.1150 
     15 H15         4.0446   -3.1673    0.3109 H         1 UNK         0.1150 
     16 H16         6.1150   -1.9500   -0.3536 H         1 UNK         0.0600 
     17 H17         6.1109   -0.1956   -0.5403 H         1 UNK         0.0600 
     18 H18         6.1128   -0.9106    1.0773 H         1 UNK         0.0600 
@<TRIPOS>BOND
     1    1    2 1    
     2    1    9 1    
     3    1   10 1    
     4    1   11 1    
     5    2    3 ar   
     6    2    4 ar   
     7    3    5 ar   
     8    3   12 1    
     9    4    6 ar   
    10    4   13 1    
    11    5    7 ar   
    12    5   14 1    
    13    6    7 ar   
    14    6   15 1    
    15    7    8 1    
    16    8   16 1    
    17    8   17 1    
    18    8   18 1    
@<TRIPOS>SUBSTRUCTURE
     1 UNK         1 GROUP             0       ****    0 ROOT    
