@<TRIPOS>MOLECULE
title: molecule 1
13   13    1
SMALL
USER_CHARGES


@<TRIPOS>ATOM
      1 Br1         5.4391    0.9769    0.1519 Br        1 UNK        -0.2000 
      2 C2          3.5363    0.9844    0.1294 C.ar      1 UNK         0.2000 
      3 C3          2.8263   -0.2310    0.1882 C.ar      1 UNK        -0.1150 
      4 C4          2.8374    2.2052    0.0541 C.ar      1 UNK        -0.1150 
      5 C5          1.4176   -0.2263    0.1716 C.ar      1 UNK        -0.1150 
      6 C6          1.4288    2.2106    0.0374 C.ar      1 UNK        -0.1150 
      7 C7          0.7183    0.9952    0.0962 C.ar      1 UNK         0.1500 
      8 O8         -0.6459    1.0040    0.0799 O.3       1 UNK        -0.5850 
      9 H9          3.3620   -1.1671    0.2459 H         1 UNK         0.1150 
     10 H10         3.3810    3.1374    0.0090 H         1 UNK         0.1150 
     11 H11         0.8790   -1.1615    0.2169 H         1 UNK         0.1150 
     12 H12         0.8950    3.1480   -0.0204 H         1 UNK         0.1150 
     13 H13        -1.0253    0.1397    0.1231 H         1 UNK         0.4350 
@<TRIPOS>BOND
     1    1    2 1    
     2    2    3 ar   
     3    2    4 ar   
     4    3    5 ar   
     5    3    9 1    
     6    4    6 ar   
     7    4   10 1    
     8    5    7 ar   
     9    5   11 1    
    10    6    7 ar   
    11    6   12 1    
    12    7    8 1    
    13    8   13 1    
@<TRIPOS>SUBSTRUCTURE
     1 UNK         1 GROUP             0       ****    0 ROOT    
