@<TRIPOS>MOLECULE
title: molecule 1
14   14    1
SMALL
USER_CHARGES


@<TRIPOS>ATOM
      1 N1         -0.0520   -1.0191    0.1269 N.pl3     1 UNK        -0.9000 
      2 C2          1.3414   -1.0203    0.1112 C.ar      1 UNK         0.1800 
      3 C3          2.0484    0.1991    0.0954 C.ar      1 UNK        -0.1150 
      4 C4          2.0463   -2.2411    0.1110 C.ar      1 UNK        -0.1150 
      5 C5          3.4571    0.1975    0.0795 C.ar      1 UNK        -0.1150 
      6 C6          3.4550   -2.2421    0.0951 C.ar      1 UNK        -0.1150 
      7 C7          4.1608   -1.0229    0.0794 C.ar      1 UNK         0.1800 
      8 Cl8         5.8861   -1.0245    0.0599 Cl        1 UNK        -0.1800 
      9 H9         -0.5815   -1.8790    0.1384 H         1 UNK         0.3600 
     10 H10        -0.5800   -0.1581    0.1273 H         1 UNK         0.3600 
     11 H11         1.5154    1.1388    0.0954 H         1 UNK         0.1150 
     12 H12         1.5117   -3.1798    0.1231 H         1 UNK         0.1150 
     13 H13         3.9965    1.1332    0.0674 H         1 UNK         0.1150 
     14 H14         3.9928   -3.1788    0.0951 H         1 UNK         0.1150 
@<TRIPOS>BOND
     1    1    2 1    
     2    1    9 1    
     3    1   10 1    
     4    2    3 ar   
     5    2    4 ar   
     6    3    5 ar   
     7    3   11 1    
     8    4    6 ar   
     9    4   12 1    
    10    5    7 ar   
    11    5   13 1    
    12    6    7 ar   
    13    6   14 1    
    14    7    8 1    
@<TRIPOS>SUBSTRUCTURE
     1 UNK         1 GROUP             0       ****    0 ROOT    
