@<TRIPOS>MOLECULE
title: molecule 1
23   24    1
SMALL
USER_CHARGES


@<TRIPOS>ATOM
      1 N1          5.5642   -2.3464    0.0886 N.am      1 UNK        -0.4987 
      2 C2          6.6524   -1.4846    0.0909 C.2       1 UNK         0.6995 
      3 C3          4.1931   -1.9922    0.0990 C.ar      1 UNK         0.5638 
      4 O4          6.6277   -0.2520    0.1025 O.2       1 UNK        -0.4970 
      5 O5          7.7703   -2.2255    0.0782 O.3       1 UNK        -0.3300 
      6 N6          3.2480   -2.9284    0.0952 N.2       1 UNK        -0.6787 
      7 N7          3.7694   -0.7149    0.1131 N.pl3     1 UNK        -0.6257 
      8 C8          9.0358   -1.5865    0.0776 C.3       1 UNK         0.1600 
      9 C9          2.0897   -2.1633    0.1084 C.ar      1 UNK         0.4982 
     10 C10         2.3856   -0.7658    0.1198 C.ar      1 UNK         0.2299 
     11 C11         0.7317   -2.5544    0.1118 C.ar      1 UNK        -0.3696 
     12 C12         1.3714    0.2077    0.1341 C.ar      1 UNK        -0.3290 
     13 C13        -0.2914   -1.5828    0.1261 C.ar      1 UNK        -0.1490 
     14 C14         0.0256   -0.2081    0.1373 C.ar      1 UNK        -0.1817 
     15 H15         5.7884   -3.3304    0.0783 H         1 UNK         0.2912 
     16 H16         4.3751    0.0941    0.1175 H         1 UNK         0.4072 
     17 H17         9.8285   -2.3345    0.0665 H         1 UNK         0.0300 
     18 H18         9.1520   -0.9542   -0.8035 H         1 UNK         0.0300 
     19 H19         9.1612   -0.9707    0.9691 H         1 UNK         0.0300 
     20 H20         0.4783   -3.6041    0.1033 H         1 UNK         0.2091 
     21 H21         1.6200    1.2585    0.1426 H         1 UNK         0.1984 
     22 H22        -1.3259   -1.8939    0.1286 H         1 UNK         0.1514 
     23 H23        -0.7659    0.5271    0.1482 H         1 UNK         0.1607 
@<TRIPOS>BOND
     1    1    2 am   BACKBONE|DICT|INTERRES
     2    1    3 1    
     3    1   15 1    
     4    2    4 2    
     5    2    5 1    
     6    3    6 ar   
     7    3    7 ar   
     8    5    8 1    
     9    6    9 ar   
    10    7   10 ar   
    11    7   16 1    
    12    8   17 1    
    13    8   18 1    
    14    8   19 1    
    15    9   11 ar   
    16    9   10 ar   
    17   10   12 ar   
    18   11   13 ar   
    19   11   20 1    
    20   12   14 ar   
    21   12   21 1    
    22   13   14 ar   
    23   13   22 1    
    24   14   23 1    
@<TRIPOS>SUBSTRUCTURE
     1 UNK         1 GROUP             0       ****    0 ROOT    
