@<TRIPOS>MOLECULE
title: molecule 1
8   7    1
SMALL
USER_CHARGES


@<TRIPOS>ATOM
      1 Cl1        -0.3042    0.1835    0.1025 Cl        1 UNK        -0.2000 
      2 C2          1.2512   -0.6853    0.0953 C.3       1 UNK        -0.0060 
      3 C3          2.4139    0.3109    0.0722 C.3       1 UNK        -0.0060 
      4 Cl4         3.9693   -0.5580    0.0650 Cl        1 UNK        -0.2000 
      5 H5          1.2670   -1.3337   -0.7812 H         1 UNK         0.1030 
      6 H6          1.2858   -1.3148    0.9849 H         1 UNK         0.1030 
      7 H7          2.3793    0.9403   -0.8174 H         1 UNK         0.1030 
      8 H8          2.3981    0.9592    0.9487 H         1 UNK         0.1030 
@<TRIPOS>BOND
     1    1    2 1    
     2    2    3 1    
     3    2    5 1    
     4    2    6 1    
     5    3    4 1    
     6    3    7 1    
     7    3    8 1    
@<TRIPOS>SUBSTRUCTURE
     1 UNK         1 GROUP             0       ****    0 ROOT    
