@<TRIPOS>MOLECULE
title: molecule 1
14   13    1
SMALL
USER_CHARGES


@<TRIPOS>ATOM
      1 O1          4.8296   -1.8131    0.0810 O.3       1 UNK        -0.5300 
      2 C2          3.7079   -1.0385    0.0911 C.2       1 UNK         0.5200 
      3 C3          2.4432   -1.9013    0.0958 C.3       1 UNK        -0.1200 
      4 O4          3.7035    0.1911    0.0958 O.2       1 UNK        -0.4400 
      5 C5          1.1423   -1.0784    0.1072 C.3       1 UNK        -0.1200 
      6 C6         -0.1096   -1.9628    0.1117 C.3       1 UNK        -0.1800 
      7 H7          5.6198   -1.2954    0.0779 H         1 UNK         0.4500 
      8 H8          2.4639   -2.5477   -0.7825 H         1 UNK         0.0600 
      9 H9          2.4750   -2.5544    0.9687 H         1 UNK         0.0600 
     10 H10         1.1221   -0.4293    0.9838 H         1 UNK         0.0600 
     11 H11         1.1110   -0.4226   -0.7641 H         1 UNK         0.0600 
     12 H12        -1.0145   -1.3548    0.1198 H         1 UNK         0.0600 
     13 H13        -0.1450   -2.6000   -0.7723 H         1 UNK         0.0600 
     14 H14        -0.1339   -2.6068    0.9912 H         1 UNK         0.0600 
@<TRIPOS>BOND
     1    1    2 1    
     2    1    7 1    
     3    2    3 1    
     4    2    4 2    
     5    3    5 1    
     6    3    8 1    
     7    3    9 1    
     8    5    6 1    
     9    5   10 1    
    10    5   11 1    
    11    6   12 1    
    12    6   13 1    
    13    6   14 1    
@<TRIPOS>SUBSTRUCTURE
     1 UNK         1 GROUP             0       ****    0 ROOT    
