@<TRIPOS>MOLECULE
title: molecule 1
9   8    1
SMALL
USER_CHARGES


@<TRIPOS>ATOM
      1 Cl1        -0.1938    0.2079    0.1043 Cl        1 UNK        -0.2000 
      2 C2          1.3276   -0.7196    0.0962 C.3       1 UNK        -0.0060 
      3 C3          2.5284    0.2317    0.0763 C.3       1 UNK         0.1450 
      4 O4          3.7259   -0.5149    0.0701 O.3       1 UNK        -0.6830 
      5 H5          1.3183   -1.3664   -0.7817 H         1 UNK         0.1030 
      6 H6          1.3363   -1.3523    0.9843 H         1 UNK         0.1030 
      7 H7          2.4990    0.8688   -0.8081 H         1 UNK         0.0600 
      8 H8          2.5170    0.8828    0.9510 H         1 UNK         0.0600 
      9 H9          4.4560    0.0854    0.0578 H         1 UNK         0.4180 
@<TRIPOS>BOND
     1    1    2 1    
     2    2    3 1    
     3    2    5 1    
     4    2    6 1    
     5    3    4 1    
     6    3    7 1    
     7    3    8 1    
     8    4    9 1    
@<TRIPOS>SUBSTRUCTURE
     1 UNK         1 GROUP             0       ****    0 ROOT    
