@<TRIPOS>MOLECULE
title: molecule 1
12   11    1
SMALL
USER_CHARGES


@<TRIPOS>ATOM
      1 N1         -0.0097    0.1974    0.0641 N.3       1 UNK        -0.9000 
      2 C2          1.2094   -0.6222    0.0704 C.3       1 UNK         0.0600 
      3 C3          2.4816    0.2316    0.1015 C.3       1 UNK         0.0600 
      4 N4          3.7005   -0.5881    0.1174 N.3       1 UNK        -0.9000 
      5 H5         -0.8380   -0.3962    0.0716 H         1 UNK         0.3600 
      6 H6         -0.0532    0.7790    0.8997 H         1 UNK         0.3600 
      7 H7          1.1972   -1.2881    0.9339 H         1 UNK         0.0600 
      8 H8          1.2237   -1.2633   -0.8117 H         1 UNK         0.0600 
      9 H9          2.4967    0.8926   -0.7658 H         1 UNK         0.0600 
     10 H10         2.4646    0.8777    0.9798 H         1 UNK         0.0600 
     11 H11         4.5279    0.0049    0.1661 H         1 UNK         0.3600 
     12 H12         3.7162   -1.1886    0.9405 H         1 UNK         0.3600 
@<TRIPOS>BOND
     1    1    2 1    
     2    1    5 1    
     3    1    6 1    
     4    2    3 1    
     5    2    7 1    
     6    2    8 1    
     7    3    4 1    
     8    3    9 1    
     9    3   10 1    
    10    4   11 1    
    11    4   12 1    
@<TRIPOS>SUBSTRUCTURE
     1 UNK         1 GROUP             0       ****    0 ROOT    
