@<TRIPOS>MOLECULE
title: molecule 1
10   9    1
SMALL
USER_CHARGES


@<TRIPOS>ATOM
      1 C1          1.1401   -0.4813   -0.4422 C.3       1 UNK         0.1450 
      2 C2          2.5597    0.1033   -0.4415 C.3       1 UNK         0.1450 
      3 O3          0.3493    0.1501    0.5432 O.3       1 UNK        -0.6830 
      4 O4          3.3306   -0.4817    0.5874 O.3       1 UNK        -0.6830 
      5 H5          0.6687   -0.3012   -1.4087 H         1 UNK         0.0600 
      6 H6          1.1524   -1.5609   -0.2873 H         1 UNK         0.0600 
      7 H7          3.0501   -0.1210   -1.3892 H         1 UNK         0.0600 
      8 H8          2.5449    1.1889   -0.3368 H         1 UNK         0.0600 
      9 H9         -0.5121   -0.2384    0.5330 H         1 UNK         0.4180 
     10 H10         4.1922   -0.0937    0.5764 H         1 UNK         0.4180 
@<TRIPOS>BOND
     1    1    2 1    
     2    1    3 1    
     3    1    5 1    
     4    1    6 1    
     5    2    4 1    
     6    2    7 1    
     7    2    8 1    
     8    3    9 1    
     9    4   10 1    
@<TRIPOS>SUBSTRUCTURE
     1 UNK         1 GROUP             0       ****    0 ROOT    
