@<TRIPOS>MOLECULE
title: molecule 1
11   10    1
SMALL
USER_CHARGES


@<TRIPOS>ATOM
      1 N1          0.1197    0.2481    0.3454 N.3       1 UNK        -0.9000 
      2 C2          1.1594   -0.6307   -0.1494 C.3       1 UNK         0.0600 
      3 C3          2.4929    0.0828   -0.1788 C.2       1 UNK        -0.1150 
      4 C4          3.6214   -0.4022    0.3599 C.2       1 UNK        -0.2300 
      5 H5         -0.7687   -0.2324    0.3238 H         1 UNK         0.3600 
      6 H6          0.2988    0.4694    1.3146 H         1 UNK         0.3600 
      7 H7          1.2162   -1.5250    0.4722 H         1 UNK         0.0600 
      8 H8          0.9046   -0.9464   -1.1613 H         1 UNK         0.0600 
      9 H9          2.5161    1.0394   -0.6808 H         1 UNK         0.1150 
     10 H10         4.5464    0.1524    0.3025 H         1 UNK         0.1150 
     11 H11         3.6373   -1.3571    0.8645 H         1 UNK         0.1150 
@<TRIPOS>BOND
     1    1    2 1    
     2    1    5 1    
     3    1    6 1    
     4    2    3 1    
     5    2    7 1    
     6    2    8 1    
     7    3    4 2    
     8    3    9 1    
     9    4   10 1    
    10    4   11 1    
@<TRIPOS>SUBSTRUCTURE
     1 UNK         1 GROUP             0       ****    0 ROOT    
