@<TRIPOS>MOLECULE
title: molecule 1
12   11    1
SMALL
USER_CHARGES


@<TRIPOS>ATOM
      1 C1          1.5065    0.2782    0.0803 C.3       1 UNK         0.0600 
      2 C2          2.1222   -1.1274    0.0882 C.3       1 UNK        -0.1200 
      3 S3         -0.2997    0.1414    0.0302 S.3       1 UNK        -0.3350 
      4 C4          3.6539   -1.0959    0.1301 C.3       1 UNK        -0.1800 
      5 H5          1.7978    0.8339    0.9721 H         1 UNK         0.0600 
      6 H6          1.8458    0.8451   -0.7872 H         1 UNK         0.0600 
      7 H7          1.7521   -1.6860    0.9487 H         1 UNK         0.0600 
      8 H8          1.7997   -1.6749   -0.7983 H         1 UNK         0.0600 
      9 H9         -0.5409    1.4556    0.0319 H         1 UNK         0.1550 
     10 H10         4.0632   -2.1063    0.1349 H         1 UNK         0.0600 
     11 H11         4.0611   -0.5762   -0.7376 H         1 UNK         0.0600 
     12 H12         4.0130   -0.5874    1.0253 H         1 UNK         0.0600 
@<TRIPOS>BOND
     1    1    2 1    
     2    1    3 1    
     3    1    5 1    
     4    1    6 1    
     5    2    4 1    
     6    2    7 1    
     7    2    8 1    
     8    3    9 1    
     9    4   10 1    
    10    4   11 1    
    11    4   12 1    
@<TRIPOS>SUBSTRUCTURE
     1 UNK         1 GROUP             0       ****    0 ROOT    
