@<TRIPOS>MOLECULE
title: molecule 1
18   17    1
SMALL
USER_CHARGES


@<TRIPOS>ATOM
      1 P1          6.1483   -1.0845   -0.0394 P.3       1 UNK         1.0611 
      2 O2          6.4088   -0.1683   -1.1840 O.2       1 UNK        -0.6661 
      3 C3          4.5430   -1.9958   -0.1324 C.3       1 UNK         0.0614 
      4 O4          6.0866   -0.3946    1.4268 O.3       1 UNK        -0.5682 
      5 O5          7.2322   -2.2695    0.1792 O.3       1 UNK        -0.5682 
      6 N6          3.3853   -1.1330    0.0382 N.3       1 UNK        -0.7800 
      7 C7          2.1569   -1.9149    0.0312 C.3       1 UNK         0.0800 
      8 C8          0.9234   -1.0271    0.2147 C.2       1 UNK         0.5200 
      9 O9          0.9667    0.1718    0.4874 O.2       1 UNK        -0.4400 
     10 O10        -0.2223   -1.7469    0.0513 O.3       1 UNK        -0.5300 
     11 H11         4.4910   -2.5047   -1.0957 H         1 UNK         0.0600 
     12 H12         4.5500   -2.7624    0.6435 H         1 UNK         0.0600 
     13 H13         6.4224   -0.9456    2.1166 H         1 UNK         0.3800 
     14 H14         8.0871   -2.0611   -0.1654 H         1 UNK         0.3800 
     15 H15         3.4656   -0.6276    0.9098 H         1 UNK         0.3800 
     16 H16         2.0689   -2.4549   -0.9125 H         1 UNK         0.0600 
     17 H17         2.1803   -2.6524    0.8344 H         1 UNK         0.0600 
     18 H18        -0.9949   -1.2153    0.1651 H         1 UNK         0.4500 
@<TRIPOS>BOND
     1    1    2 2    
     2    1    3 1    
     3    1    4 1    
     4    1    5 1    
     5    3    6 1    
     6    3   11 1    
     7    3   12 1    
     8    4   13 1    
     9    5   14 1    
    10    6    7 1    
    11    6   15 1    
    12    7    8 1    
    13    7   16 1    
    14    7   17 1    
    15    8    9 2    
    16    8   10 1    
    17   10   18 1    
@<TRIPOS>SUBSTRUCTURE
     1 UNK         1 GROUP             0       ****    0 ROOT    
