@<TRIPOS>MOLECULE
title: molecule 1
18   18    1
SMALL
USER_CHARGES


@<TRIPOS>ATOM
      1 C1          0.3190   -0.3089    0.3423 C.3       1 UNK        -0.1200 
      2 C2          1.8217   -0.3015    0.0169 C.3       1 UNK        -0.0095 
      3 C3         -0.3749    0.9531   -0.1980 C.3       1 UNK        -0.1200 
      4 C4          2.4936    0.9770    0.5440 C.3       1 UNK        -0.1635 
      5 C5          0.3029    2.2319    0.3229 C.3       1 UNK        -0.1200 
      6 C6          1.8056    2.2386   -0.0025 C.3       1 UNK        -0.0095 
      7 Br7         4.4093    0.9850    0.0025 Br        1 UNK        -0.2039 
      8 H8          0.1796   -0.3684    1.4224 H         1 UNK         0.0600 
      9 H9         -0.1482   -1.1995   -0.0790 H         1 UNK         0.0600 
     10 H10         1.9594   -0.3694   -1.0631 H         1 UNK         0.0600 
     11 H11         2.3016   -1.1810    0.4470 H         1 UNK         0.0600 
     12 H12        -1.4278    0.9486    0.0852 H         1 UNK         0.0600 
     13 H13        -0.3486    0.9450   -1.2884 H         1 UNK         0.0600 
     14 H14         2.4710    0.9851    1.6345 H         1 UNK         0.1464 
     15 H15         0.1627    2.3061    1.4020 H         1 UNK         0.0600 
     16 H16        -0.1755    3.1100   -0.1118 H         1 UNK         0.0600 
     17 H17         1.9425    2.2917   -1.0834 H         1 UNK         0.0600 
     18 H18         2.2743    3.1306    0.4141 H         1 UNK         0.0600 
@<TRIPOS>BOND
     1    1    2 1    
     2    1    3 1    
     3    1    8 1    
     4    1    9 1    
     5    2    4 1    
     6    2   10 1    
     7    2   11 1    
     8    3    5 1    
     9    3   12 1    
    10    3   13 1    
    11    4    6 1    
    12    4    7 1    
    13    4   14 1    
    14    5    6 1    
    15    5   15 1    
    16    5   16 1    
    17    6   17 1    
    18    6   18 1    
@<TRIPOS>SUBSTRUCTURE
     1 UNK         1 GROUP             0       ****    0 ROOT    
