@<TRIPOS>MOLECULE
title: molecule 1
13   13    1
SMALL
USER_CHARGES


@<TRIPOS>ATOM
      1 O1          0.0114   -0.9987    0.0950 O.3       1 UNK        -0.5850 
      2 C2          1.3757   -1.0140    0.0961 C.ar      1 UNK         0.1500 
      3 C3          2.0919    0.1995    0.0839 C.ar      1 UNK        -0.1150 
      4 C4          2.0699   -2.2408    0.1094 C.ar      1 UNK        -0.1150 
      5 C5          3.5006    0.1869    0.0849 C.ar      1 UNK        -0.1150 
      6 C6          3.4787   -2.2527    0.1104 C.ar      1 UNK        -0.1150 
      7 C7          4.1941   -1.0392    0.0982 C.ar      1 UNK        -0.1150 
      8 H8         -0.3704   -1.8628    0.1038 H         1 UNK         0.4350 
      9 H9          1.5622    1.1409    0.0737 H         1 UNK         0.1150 
     10 H10         1.5270   -3.1746    0.1188 H         1 UNK         0.1150 
     11 H11         4.0487    1.1175    0.0756 H         1 UNK         0.1150 
     12 H12         4.0106   -3.1928    0.1206 H         1 UNK         0.1150 
     13 H13         5.2742   -1.0488    0.0990 H         1 UNK         0.1150 
@<TRIPOS>BOND
     1    1    2 1    
     2    1    8 1    
     3    2    3 ar   
     4    2    4 ar   
     5    3    5 ar   
     6    3    9 1    
     7    4    6 ar   
     8    4   10 1    
     9    5    7 ar   
    10    5   11 1    
    11    6    7 ar   
    12    6   12 1    
    13    7   13 1    
@<TRIPOS>SUBSTRUCTURE
     1 UNK         1 GROUP             0       ****    0 ROOT    
