@<TRIPOS>MOLECULE
title: molecule 1
18   18    1
SMALL
USER_CHARGES


@<TRIPOS>ATOM
      1 C1         -0.0897   -2.6136    0.1798 C.3       1 UNK        -0.0650 
      2 C2          1.2209   -1.8554    0.1359 C.ar      1 UNK        -0.1150 
      3 C3          1.2232   -0.4453    0.1242 C.ar      1 UNK        -0.1150 
      4 C4          2.4436   -2.5577    0.1008 C.ar      1 UNK        -0.1150 
      5 C5          2.4423    0.2584    0.0818 C.ar      1 UNK        -0.1150 
      6 C6          3.6657   -1.8549    0.0563 C.ar      1 UNK        -0.1150 
      7 C7          3.6621   -0.4448    0.0490 C.ar      1 UNK        -0.1150 
      8 C8          4.9769   -2.6125    0.0226 C.3       1 UNK        -0.0650 
      9 H9          0.0264   -3.5598    0.7092 H         1 UNK         0.0600 
     10 H10        -0.8585   -2.0336    0.6912 H         1 UNK         0.0600 
     11 H11        -0.4350   -2.8258   -0.8322 H         1 UNK         0.0600 
     12 H12         0.2913    0.1004    0.1480 H         1 UNK         0.1150 
     13 H13         2.4441   -3.6381    0.1081 H         1 UNK         0.1150 
     14 H14         2.4419    1.3384    0.0746 H         1 UNK         0.1150 
     15 H15         4.5935    0.1014    0.0178 H         1 UNK         0.1150 
     16 H16         4.8617   -3.5657   -0.4942 H         1 UNK         0.0600 
     17 H17         5.7452   -2.0386   -0.4964 H         1 UNK         0.0600 
     18 H18         5.3223   -2.8108    1.0374 H         1 UNK         0.0600 
@<TRIPOS>BOND
     1    1    2 1    
     2    1    9 1    
     3    1   10 1    
     4    1   11 1    
     5    2    3 ar   
     6    2    4 ar   
     7    3    5 ar   
     8    3   12 1    
     9    4    6 ar   
    10    4   13 1    
    11    5    7 ar   
    12    5   14 1    
    13    6    7 ar   
    14    6    8 1    
    15    7   15 1    
    16    8   16 1    
    17    8   17 1    
    18    8   18 1    
@<TRIPOS>SUBSTRUCTURE
     1 UNK         1 GROUP             0       ****    0 ROOT    
