@<TRIPOS>MOLECULE
title: molecule 1
12   12    1
SMALL
USER_CHARGES


@<TRIPOS>ATOM
      1 Cl1        -0.3032   -0.9922    0.1159 Cl        1 UNK        -0.1800 
      2 C2          1.4221   -1.0055    0.1032 C.ar      1 UNK         0.1800 
      3 C3          2.1362    0.2091    0.0821 C.ar      1 UNK        -0.1150 
      4 C4          2.1176   -2.2309    0.1139 C.ar      1 UNK        -0.1150 
      5 C5          3.5449    0.1982    0.0717 C.ar      1 UNK        -0.1150 
      6 C6          3.5264   -2.2417    0.1035 C.ar      1 UNK        -0.1150 
      7 C7          4.2400   -1.0272    0.0824 C.ar      1 UNK        -0.1150 
      8 H8          1.6046    1.1494    0.0739 H         1 UNK         0.1150 
      9 H9          1.5718   -3.1629    0.1301 H         1 UNK         0.1150 
     10 H10         4.0920    1.1294    0.0555 H         1 UNK         0.1150 
     11 H11         4.0593   -3.1812    0.1117 H         1 UNK         0.1150 
     12 H12         5.3201   -1.0355    0.0745 H         1 UNK         0.1150 
@<TRIPOS>BOND
     1    1    2 1    
     2    2    3 ar   
     3    2    4 ar   
     4    3    5 ar   
     5    3    8 1    
     6    4    6 ar   
     7    4    9 1    
     8    5    7 ar   
     9    5   10 1    
    10    6    7 ar   
    11    6   11 1    
    12    7   12 1    
@<TRIPOS>SUBSTRUCTURE
     1 UNK         1 GROUP             0       ****    0 ROOT    
