@<TRIPOS>MOLECULE
title: molecule 1
16   16    1
SMALL
USER_CHARGES


@<TRIPOS>ATOM
      1 C1          2.4376   -1.8278    0.1141 C.ar      1 UNK        -0.1150 
      2 C2          1.2200   -1.1189    0.1143 C.ar      1 UNK         0.1500 
      3 C3          2.4370   -3.2379    0.0909 C.ar      1 UNK        -0.1150 
      4 O4          1.2272    0.2454    0.1371 O.3       1 UNK        -0.5850 
      5 C5         -0.0024   -1.8195    0.0910 C.ar      1 UNK        -0.1150 
      6 C6          1.2118   -3.9367    0.0673 C.ar      1 UNK        -0.1150 
      7 C7          3.7509   -3.9916    0.0902 C.3       1 UNK        -0.0650 
      8 C8         -0.0056   -3.2278    0.0674 C.ar      1 UNK        -0.1150 
      9 H9          3.3735   -1.2884    0.1319 H         1 UNK         0.1150 
     10 H10         0.3606    0.6218    0.1352 H         1 UNK         0.4350 
     11 H11        -0.9394   -1.2822    0.0911 H         1 UNK         0.1150 
     12 H12         1.1999   -5.0168    0.0491 H         1 UNK         0.1150 
     13 H13         3.5919   -5.0703    0.1059 H         1 UNK         0.0600 
     14 H14         4.3269   -3.7449   -0.8020 H         1 UNK         0.0600 
     15 H15         4.3415   -3.7222    0.9662 H         1 UNK         0.0600 
     16 H16        -0.9423   -3.7651    0.0494 H         1 UNK         0.1150 
@<TRIPOS>BOND
     1    1    2 ar   
     2    1    3 ar   
     3    1    9 1    
     4    2    4 1    
     5    2    5 ar   
     6    3    6 ar   
     7    3    7 1    
     8    4   10 1    
     9    5    8 ar   
    10    5   11 1    
    11    6    8 ar   
    12    6   12 1    
    13    7   13 1    
    14    7   14 1    
    15    7   15 1    
    16    8   16 1    
@<TRIPOS>SUBSTRUCTURE
     1 UNK         1 GROUP             0       ****    0 ROOT    
