@<TRIPOS>MOLECULE
title: molecule 1
17   17    1
SMALL
USER_CHARGES


@<TRIPOS>ATOM
      1 C1          2.4526   -1.1078    0.0904 C.ar      1 UNK         0.1800 
      2 C2          3.6746   -1.8079    0.1452 C.ar      1 UNK        -0.1150 
      3 C3          1.2361   -1.8192    0.0561 C.ar      1 UNK        -0.1150 
      4 N4          2.4471    0.2858    0.0705 N.pl3     1 UNK        -0.9000 
      5 C5          3.6793   -3.2162    0.1665 C.ar      1 UNK        -0.1150 
      6 C6          1.2387   -3.2297    0.0753 C.ar      1 UNK        -0.1150 
      7 C7          2.4635   -3.9265    0.1323 C.ar      1 UNK        -0.1150 
      8 C8         -0.0696   -3.9925    0.0415 C.3       1 UNK        -0.0650 
      9 H9          4.6110   -1.2700    0.1718 H         1 UNK         0.1150 
     10 H10         0.2984   -1.2839    0.0154 H         1 UNK         0.1150 
     11 H11         1.5849    0.8102    0.0326 H         1 UNK         0.3600 
     12 H12         3.3049    0.8181    0.0954 H         1 UNK         0.3600 
     13 H13         4.6161   -3.7519    0.2095 H         1 UNK         0.1150 
     14 H14         2.4746   -5.0065    0.1503 H         1 UNK         0.1150 
     15 H15         0.0598   -4.9673   -0.4298 H         1 UNK         0.0600 
     16 H16        -0.4408   -4.1469    1.0548 H         1 UNK         0.0600 
     17 H17        -0.8249   -3.4436   -0.5217 H         1 UNK         0.0600 
@<TRIPOS>BOND
     1    1    2 ar   
     2    1    3 ar   
     3    1    4 1    
     4    2    5 ar   
     5    2    9 1    
     6    3    6 ar   
     7    3   10 1    
     8    4   11 1    
     9    4   12 1    
    10    5    7 ar   
    11    5   13 1    
    12    6    7 ar   
    13    6    8 1    
    14    7   14 1    
    15    8   15 1    
    16    8   16 1    
    17    8   17 1    
@<TRIPOS>SUBSTRUCTURE
     1 UNK         1 GROUP             0       ****    0 ROOT    
