@<TRIPOS>MOLECULE
title: molecule 1
22   21    1
SMALL
USER_CHARGES


@<TRIPOS>ATOM
      1 N1          2.4188   -1.6454    0.0976 N.3       1 UNK        -0.7800 
      2 C2          3.6396   -0.8468    0.1246 C.3       1 UNK         0.1400 
      3 C3          1.1956   -0.8502    0.0741 C.3       1 UNK         0.1400 
      4 C4          4.7573   -1.7190    0.7115 C.3       1 UNK        -0.1800 
      5 C5          3.9944   -0.3662   -1.2928 C.3       1 UNK        -0.1800 
      6 C6          0.0760   -1.7269   -0.5023 C.3       1 UNK        -0.1800 
      7 C7          0.8486   -0.3627    1.4911 C.3       1 UNK        -0.1800 
      8 H8          2.4456   -2.2610   -0.7026 H         1 UNK         0.3800 
      9 H9          3.5094    0.0159    0.7777 H         1 UNK         0.0600 
     10 H10         1.3206    0.0093   -0.5844 H         1 UNK         0.0600 
     11 H11         5.6936   -1.1639    0.7730 H         1 UNK         0.0600 
     12 H12         4.5080   -2.0518    1.7198 H         1 UNK         0.0600 
     13 H13         4.9370   -2.6056    0.1021 H         1 UNK         0.0600 
     14 H14         4.9293    0.1948   -1.2873 H         1 UNK         0.0600 
     15 H15         4.1186   -1.2047   -1.9792 H         1 UNK         0.0600 
     16 H16         3.2295    0.2912   -1.7054 H         1 UNK         0.0600 
     17 H17        -0.8628   -1.1750   -0.5549 H         1 UNK         0.0600 
     18 H18         0.3151   -2.0604   -1.5128 H         1 UNK         0.0600 
     19 H19        -0.0951   -2.6127    0.1109 H         1 UNK         0.0600 
     20 H20        -0.0913    0.1899    1.4907 H         1 UNK         0.0600 
     21 H21         0.7388   -1.1988    2.1828 H         1 UNK         0.0600 
     22 H22         1.6113    0.3033    1.8936 H         1 UNK         0.0600 
@<TRIPOS>BOND
     1    1    2 1    
     2    1    3 1    
     3    1    8 1    
     4    2    4 1    
     5    2    5 1    
     6    2    9 1    
     7    3    6 1    
     8    3    7 1    
     9    3   10 1    
    10    4   11 1    
    11    4   12 1    
    12    4   13 1    
    13    5   14 1    
    14    5   15 1    
    15    5   16 1    
    16    6   17 1    
    17    6   18 1    
    18    6   19 1    
    19    7   20 1    
    20    7   21 1    
    21    7   22 1    
@<TRIPOS>SUBSTRUCTURE
     1 UNK         1 GROUP             0       ****    0 ROOT    
