@<TRIPOS>MOLECULE
title: molecule 1
15   15    1
SMALL
USER_CHARGES


@<TRIPOS>ATOM
      1 C1         -0.0768   -1.0113    0.1069 C.3       1 UNK        -0.0650 
      2 C2          1.4379   -1.0158    0.0985 C.ar      1 UNK        -0.1150 
      3 C3          2.1494    0.1999    0.0241 C.ar      1 UNK        -0.1150 
      4 C4          2.1429   -2.2354    0.1712 C.ar      1 UNK        -0.1150 
      5 C5          3.5581    0.1955    0.0192 C.ar      1 UNK        -0.1150 
      6 C6          3.5516   -2.2391    0.1662 C.ar      1 UNK        -0.1150 
      7 C7          4.2595   -1.0239    0.0899 C.ar      1 UNK        -0.1150 
      8 H8         -0.4711   -1.9215   -0.3458 H         1 UNK         0.0600 
      9 H9         -0.4467   -0.9480    1.1305 H         1 UNK         0.0600 
     10 H10        -0.4664   -0.1605   -0.4529 H         1 UNK         0.0600 
     11 H11         1.6176    1.1387   -0.0289 H         1 UNK         0.1150 
     12 H12         1.6061   -3.1709    0.2314 H         1 UNK         0.1150 
     13 H13         4.1006    1.1277   -0.0383 H         1 UNK         0.1150 
     14 H14         4.0891   -3.1744    0.2215 H         1 UNK         0.1150 
     15 H15         5.3395   -1.0270    0.0862 H         1 UNK         0.1150 
@<TRIPOS>BOND
     1    1    2 1    
     2    1    8 1    
     3    1    9 1    
     4    1   10 1    
     5    2    3 ar   
     6    2    4 ar   
     7    3    5 ar   
     8    3   11 1    
     9    4    6 ar   
    10    4   12 1    
    11    5    7 ar   
    12    5   13 1    
    13    6    7 ar   
    14    6   14 1    
    15    7   15 1    
@<TRIPOS>SUBSTRUCTURE
     1 UNK         1 GROUP             0       ****    0 ROOT    
