@<TRIPOS>MOLECULE
title: molecule 1
16   15    1
SMALL
USER_CHARGES


@<TRIPOS>ATOM
      1 C1         -0.0173   -0.6269    0.0862 C.3       1 UNK        -0.1800 
      2 C2          1.2313    0.2600    0.1040 C.3       1 UNK         0.0800 
      3 N3          2.4211   -0.5744    0.0813 N.3       1 UNK        -0.7800 
      4 C4          3.6129    0.2573    0.1055 C.3       1 UNK         0.0800 
      5 C5          4.8594   -0.6326    0.0894 C.3       1 UNK        -0.1800 
      6 H6         -0.9221   -0.0189    0.0990 H         1 UNK         0.0600 
      7 H7         -0.0486   -1.2479   -0.8097 H         1 UNK         0.0600 
      8 H8         -0.0491   -1.2857    0.9546 H         1 UNK         0.0600 
      9 H9          1.2290    0.9250   -0.7608 H         1 UNK         0.0600 
     10 H10         1.2320    0.8838    0.9989 H         1 UNK         0.0600 
     11 H11         2.4199   -1.1937    0.8794 H         1 UNK         0.3800 
     12 H12         3.6178    0.9222   -0.7592 H         1 UNK         0.0600 
     13 H13         3.6125    0.8810    1.0005 H         1 UNK         0.0600 
     14 H14         5.7656   -0.0267    0.1033 H         1 UNK         0.0600 
     15 H15         4.8885   -1.2915    0.9578 H         1 UNK         0.0600 
     16 H16         4.8904   -1.2537   -0.8065 H         1 UNK         0.0600 
@<TRIPOS>BOND
     1    1    2 1    
     2    1    6 1    
     3    1    7 1    
     4    1    8 1    
     5    2    3 1    
     6    2    9 1    
     7    2   10 1    
     8    3    4 1    
     9    3   11 1    
    10    4    5 1    
    11    4   12 1    
    12    4   13 1    
    13    5   14 1    
    14    5   15 1    
    15    5   16 1    
@<TRIPOS>SUBSTRUCTURE
     1 UNK         1 GROUP             0       ****    0 ROOT    
