@<TRIPOS>MOLECULE
title: molecule 1
11   11    1
SMALL
USER_CHARGES


@<TRIPOS>ATOM
      1 N1          2.4806   -1.8991    0.0696 N.ar      1 UNK        -0.6780 
      2 C2          1.2952   -2.5459    0.0859 C.ar      1 UNK         0.4730 
      3 C3          2.4630   -0.5487    0.0707 C.ar      1 UNK         0.4730 
      4 C4          0.0521   -1.8823    0.1039 C.ar      1 UNK        -0.4470 
      5 C5          1.2753    0.2095    0.0880 C.ar      1 UNK        -0.4470 
      6 C6          0.0443   -0.4742    0.1049 C.ar      1 UNK         0.2270 
      7 H7          1.3384   -3.6250    0.0846 H         1 UNK         0.0120 
      8 H8          3.4246   -0.0572    0.0575 H         1 UNK         0.0120 
      9 H9         -0.8720   -2.4410    0.1166 H         1 UNK         0.1550 
     10 H10         1.3090    1.2888    0.0882 H         1 UNK         0.1550 
     11 H11        -0.8879    0.0710    0.1184 H         1 UNK         0.0650 
@<TRIPOS>BOND
     1    1    2 ar   
     2    1    3 ar   
     3    2    4 ar   
     4    2    7 1    
     5    3    5 ar   
     6    3    8 1    
     7    4    6 ar   
     8    4    9 1    
     9    5    6 ar   
    10    5   10 1    
    11    6   11 1    
@<TRIPOS>SUBSTRUCTURE
     1 UNK         1 GROUP             0       ****    0 ROOT    
