@<TRIPOS>MOLECULE
title: molecule 1
9   9    1
SMALL
USER_CHARGES


@<TRIPOS>ATOM
      1 C1          1.9377    0.1782    0.0690 C.2       1 UNK        -0.0738 
      2 C2          2.4380   -1.0972    0.1016 C.2       1 UNK        -0.3255 
      3 C3          0.5119    0.2130    0.0638 C.2       1 UNK        -0.0738 
      4 S4          1.1640   -2.2869    0.1268 S.3       1 UNK         0.0328 
      5 C5         -0.0502   -1.0364    0.0926 C.2       1 UNK        -0.3255 
      6 H6          2.5374    1.0763    0.0489 H         1 UNK         0.1211 
      7 H7          3.4718   -1.4097    0.1124 H         1 UNK         0.2618 
      8 H8         -0.0431    1.1393    0.0394 H         1 UNK         0.1211 
      9 H9         -1.0981   -1.2981    0.0958 H         1 UNK         0.2618 
@<TRIPOS>BOND
     1    1    2 2    
     2    1    3 1    
     3    1    6 1    
     4    2    4 1    
     5    2    7 1    
     6    3    5 2    
     7    3    8 1    
     8    4    5 1    
     9    5    9 1    
@<TRIPOS>SUBSTRUCTURE
     1 UNK         1 GROUP             0       ****    0 ROOT    
