@<TRIPOS>MOLECULE
title: molecule 1
18   17    1
SMALL
USER_CHARGES


@<TRIPOS>ATOM
      1 O1         -0.0452   -0.5382    0.1030 O.3       1 UNK        -0.6830 
      2 C2          1.1176    0.2609    0.1011 C.3       1 UNK         0.1450 
      3 C3          2.3590   -0.6387    0.1161 C.3       1 UNK         0.0800 
      4 N4          3.5823    0.1569    0.1062 N.3       1 UNK        -0.7800 
      5 C5          4.7970   -0.6519    0.1009 C.3       1 UNK         0.0800 
      6 C6          6.0478    0.2342    0.0702 C.3       1 UNK         0.1450 
      7 O7          7.2018   -0.5775    0.0577 O.3       1 UNK        -0.6830 
      8 H8         -0.8010    0.0292    0.1025 H         1 UNK         0.4180 
      9 H9          1.1100    0.8969   -0.7848 H         1 UNK         0.0600 
     10 H10         1.1030    0.9132    0.9751 H         1 UNK         0.0600 
     11 H11         2.3376   -1.2786    0.9993 H         1 UNK         0.0600 
     12 H12         2.3382   -1.2997   -0.7514 H         1 UNK         0.0600 
     13 H13         3.5806    0.7747   -0.6993 H         1 UNK         0.3800 
     14 H14         4.8225   -1.2921    0.9838 H         1 UNK         0.0600 
     15 H15         4.7998   -1.3130   -0.7668 H         1 UNK         0.0600 
     16 H16         6.0512    0.8702   -0.8157 H         1 UNK         0.0600 
     17 H17         6.0804    0.8862    0.9439 H         1 UNK         0.0600 
     18 H18         7.9637   -0.0183    0.0476 H         1 UNK         0.4180 
@<TRIPOS>BOND
     1    1    2 1    
     2    1    8 1    
     3    2    3 1    
     4    2    9 1    
     5    2   10 1    
     6    3    4 1    
     7    3   11 1    
     8    3   12 1    
     9    4    5 1    
    10    4   13 1    
    11    5    6 1    
    12    5   14 1    
    13    5   15 1    
    14    6    7 1    
    15    6   16 1    
    16    6   17 1    
    17    7   18 1    
@<TRIPOS>SUBSTRUCTURE
     1 UNK         1 GROUP             0       ****    0 ROOT    
