@<TRIPOS>MOLECULE
title: molecule 1
23   22    1
SMALL
USER_CHARGES


@<TRIPOS>ATOM
      1 C1          0.8340   -1.4671   -0.3650 C.3       1 UNK        -0.1800 
      2 C2          1.5692   -0.1254   -0.3957 C.3       1 UNK         0.1400 
      3 O3          2.7968   -0.2589    0.3002 O.3       1 UNK        -0.4000 
      4 C4          3.5489    0.9435    0.3212 C.3       1 UNK         0.1400 
      5 C5          4.8570    0.7047    1.0816 C.3       1 UNK         0.1400 
      6 O6          5.7401   -0.0444    0.2630 O.3       1 UNK        -0.4000 
      7 C7          6.9782   -0.3186    0.8981 C.3       1 UNK         0.1400 
      8 C8          7.8667   -1.1262   -0.0562 C.3       1 UNK         0.1450 
      9 O9          8.5497   -0.2602   -0.9382 O.3       1 UNK        -0.6830 
     10 H10        -0.1176   -1.4023   -0.8929 H         1 UNK         0.0600 
     11 H11         1.4276   -2.2490   -0.8392 H         1 UNK         0.0600 
     12 H12         0.6282   -1.7769    0.6598 H         1 UNK         0.0600 
     13 H13         1.7526    0.1745   -1.4286 H         1 UNK         0.0300 
     14 H14         0.9541    0.6466    0.0691 H         1 UNK         0.0300 
     15 H15         3.7546    1.2969   -0.6905 H         1 UNK         0.0300 
     16 H16         2.9708    1.7176    0.8280 H         1 UNK         0.0300 
     17 H17         5.3187    1.6641    1.3195 H         1 UNK         0.0300 
     18 H18         4.6622    0.1911    2.0244 H         1 UNK         0.0300 
     19 H19         7.4765    0.5977    1.2197 H         1 UNK         0.0300 
     20 H20         6.7836   -0.9122    1.7926 H         1 UNK         0.0300 
     21 H21         8.6173   -1.6741    0.5141 H         1 UNK         0.0600 
     22 H22         7.2847   -1.8608   -0.6137 H         1 UNK         0.0600 
     23 H23         9.0845   -0.7806   -1.5180 H         1 UNK         0.4180 
@<TRIPOS>BOND
     1    1    2 1    
     2    1   10 1    
     3    1   11 1    
     4    1   12 1    
     5    2    3 1    
     6    2   13 1    
     7    2   14 1    
     8    3    4 1    
     9    4    5 1    
    10    4   15 1    
    11    4   16 1    
    12    5    6 1    
    13    5   17 1    
    14    5   18 1    
    15    6    7 1    
    16    7    8 1    
    17    7   19 1    
    18    7   20 1    
    19    8    9 1    
    20    8   21 1    
    21    8   22 1    
    22    9   23 1    
@<TRIPOS>SUBSTRUCTURE
     1 UNK         1 GROUP             0       ****    0 ROOT    
