@<TRIPOS>MOLECULE
title: molecule 1
24   23    1
SMALL
USER_CHARGES


@<TRIPOS>ATOM
      1 C1          8.5896    0.1960    0.1140 C.3       1 UNK        -0.1800 
      2 C2          7.3109   -0.6491    0.1070 C.3       1 UNK        -0.1200 
      3 C3          6.0372    0.2085    0.1094 C.3       1 UNK        -0.1200 
      4 C4          4.7560   -0.6381    0.1024 C.3       1 UNK        -0.1200 
      5 C5          3.4822    0.2197    0.1048 C.3       1 UNK        -0.1200 
      6 C6          2.2009   -0.6266    0.0978 C.3       1 UNK        -0.1200 
      7 C7          0.9294    0.2322    0.1001 C.3       1 UNK         0.1450 
      8 O8         -0.2095   -0.6012    0.0935 O.3       1 UNK        -0.6830 
      9 H9          9.4752   -0.4397    0.1122 H         1 UNK         0.0600 
     10 H10         8.6409    0.8402   -0.7641 H         1 UNK         0.0600 
     11 H11         8.6376    0.8305    0.9994 H         1 UNK         0.0600 
     12 H12         7.3143   -1.2974   -0.7700 H         1 UNK         0.0600 
     13 H13         7.3111   -1.3069    0.9769 H         1 UNK         0.0600 
     14 H14         6.0388    0.8568    0.9866 H         1 UNK         0.0600 
     15 H15         6.0420    0.8664   -0.7606 H         1 UNK         0.0600 
     16 H16         4.7548   -1.2865   -0.7748 H         1 UNK         0.0600 
     17 H17         4.7516   -1.2960    0.9724 H         1 UNK         0.0600 
     18 H18         3.4833    0.8679    0.9820 H         1 UNK         0.0600 
     19 H19         3.4866    0.8775   -0.7653 H         1 UNK         0.0600 
     20 H20         2.1991   -1.2749   -0.7797 H         1 UNK         0.0600 
     21 H21         2.1959   -1.2845    0.9680 H         1 UNK         0.0600 
     22 H22         0.8977    0.8714    0.9831 H         1 UNK         0.0600 
     23 H23         0.9009    0.8810   -0.7759 H         1 UNK         0.0600 
     24 H24        -0.9821   -0.0568    0.0950 H         1 UNK         0.4180 
@<TRIPOS>BOND
     1    1    2 1    
     2    1    9 1    
     3    1   10 1    
     4    1   11 1    
     5    2    3 1    
     6    2   12 1    
     7    2   13 1    
     8    3    4 1    
     9    3   14 1    
    10    3   15 1    
    11    4    5 1    
    12    4   16 1    
    13    4   17 1    
    14    5    6 1    
    15    5   18 1    
    16    5   19 1    
    17    6    7 1    
    18    6   20 1    
    19    6   21 1    
    20    7    8 1    
    21    7   22 1    
    22    7   23 1    
    23    8   24 1    
@<TRIPOS>SUBSTRUCTURE
     1 UNK         1 GROUP             0       ****    0 ROOT    
