@<TRIPOS>MOLECULE
title: molecule 1
19   18    1
SMALL
USER_CHARGES


@<TRIPOS>ATOM
      1 O1          5.6878    0.7442    0.7508 O.3       1 UNK        -0.4000 
      2 C2          4.7264    1.5175    0.1072 C.3       1 UNK         0.2000 
      3 C3          6.5185    0.0123   -0.1378 C.3       1 UNK         0.1400 
      4 O4          3.7681    0.7505   -0.5483 O.3       1 UNK        -0.4000 
      5 C5          7.5212   -0.8003    0.6852 C.3       1 UNK        -0.0060 
      6 C6          2.9401    0.0018    0.3289 C.3       1 UNK         0.1400 
      7 Cl7         8.5884   -1.7385   -0.3899 Cl        1 UNK        -0.2000 
      8 C8          1.9406   -0.8019   -0.5066 C.3       1 UNK        -0.0060 
      9 Cl9         0.8770   -1.7607    0.5538 Cl        1 UNK        -0.2000 
     10 H10         4.2419    2.1569    0.8467 H         1 UNK         0.1000 
     11 H11         5.2084    2.1701   -0.6223 H         1 UNK         0.1000 
     12 H12         5.9184   -0.6573   -0.7558 H         1 UNK         0.0300 
     13 H13         7.0484    0.6935   -0.8055 H         1 UNK         0.0300 
     14 H14         8.1489   -0.1515    1.2963 H         1 UNK         0.1030 
     15 H15         7.0120   -1.5022    1.3460 H         1 UNK         0.1030 
     16 H16         3.5429   -0.6750    0.9364 H         1 UNK         0.0300 
     17 H17         2.4077    0.6705    1.0069 H         1 UNK         0.0300 
     18 H18         1.3104   -0.1461   -1.1077 H         1 UNK         0.1030 
     19 H19         2.4525   -1.4914   -1.1782 H         1 UNK         0.1030 
@<TRIPOS>BOND
     1    1    2 1    
     2    1    3 1    
     3    2    4 1    
     4    2   10 1    
     5    2   11 1    
     6    3    5 1    
     7    3   12 1    
     8    3   13 1    
     9    4    6 1    
    10    5    7 1    
    11    5   14 1    
    12    5   15 1    
    13    6    8 1    
    14    6   16 1    
    15    6   17 1    
    16    8    9 1    
    17    8   18 1    
    18    8   19 1    
@<TRIPOS>SUBSTRUCTURE
     1 UNK         1 GROUP             0       ****    0 ROOT    
