@<TRIPOS>MOLECULE
title: molecule 1
95   102    1
SMALL
USER_CHARGES


@<TRIPOS>ATOM
      1 C1          5.5219   -0.7278   -1.9177 C.3       1 UNK        -0.1800 
      2 C2          4.8425   -1.2761   -0.6729 C.2       1 UNK        -0.1150 
      3 C3          3.7827   -0.7859    0.0091 C.2       1 UNK         0.0000 
      4 C4          3.2630   -1.5117    1.2401 C.3       1 UNK        -0.1800 
      5 C5          3.1094    0.4859   -0.3656 C.2       1 UNK         0.5100 
      6 O6          3.7086    1.4506   -0.8442 O.2       1 UNK        -0.4300 
      7 O7          1.7819    0.5117   -0.0325 O.3       1 UNK        -0.3300 
      8 C8          1.0881    1.7499    0.0544 C.3       1 UNK         0.2200 
      9 C9          1.4672    2.3080    1.4559 C.3       1 UNK        -0.1200 
     10 C10        -0.4617    1.8191   -0.3030 C.3       1 UNK         0.0000 
     11 C11         0.6247    3.5086    1.9014 C.3       1 UNK         0.2200 
     12 C12        -1.2544    0.7201   -1.0980 C.3       1 UNK        -0.0600 
     13 C13        -1.3110    2.0674    0.9670 C.3       1 UNK        -0.0600 
     14 C14        -0.5950    2.8988   -1.4033 C.3       1 UNK         0.1400 
     15 O15         0.8536    4.5533    0.9501 O.3       1 UNK        -0.3300 
     16 C16        -0.8800    3.1292    2.0107 C.3       1 UNK         0.0000 
     17 C17        -1.8396   -0.6347   -0.4732 C.3       1 UNK         0.0000 
     18 C18        -0.9219    0.9456   -2.6086 C.3       1 UNK         0.3647 
     19 C19        -1.4351    0.7488    1.7377 C.3       1 UNK         0.1700 
     20 O20        -0.2460    2.1714   -2.5844 O.3       1 UNK        -0.4000 
     21 C21         1.7561    5.5550    1.1132 C.2       1 UNK         0.5100 
     22 C22        -1.7461    4.4178    1.9911 C.2       1 UNK         0.5100 
     23 C23        -1.1776    2.3480    3.3218 C.3       1 UNK         0.1400 
     24 C24        -2.3432   -0.2442    0.9772 C.3       1 UNK         0.2050 
     25 C25        -3.1727   -0.9726   -1.2143 C.3       1 UNK        -0.1800 
     26 C26        -0.9009   -1.9007   -0.5507 C.3       1 UNK         0.1597 
     27 O27        -2.1281    1.0926   -3.3382 O.3       1 UNK        -0.5827 
     28 C28        -0.0240   -0.0409   -3.3838 C.2       1 UNK         0.5100 
     29 O29        -1.9850    1.2382    2.9445 O.3       1 UNK        -0.4000 
     30 O30         1.9256    6.4391    0.2773 O.2       1 UNK        -0.4300 
     31 C31         2.5763    5.5521    2.4046 C.3       1 UNK        -0.1800 
     32 O32        -2.5749    4.6518    1.1091 O.2       1 UNK        -0.4300 
     33 O33        -1.4530    5.2521    3.0077 O.3       1 UNK        -0.3300 
     34 O34        -2.6440   -1.3770    1.7598 O.3       1 UNK        -0.6830 
     35 C35        -1.0526   -2.8746   -1.7269 C.3       1 UNK         0.1865 
     36 C36        -0.2108   -2.7603    0.5087 C.3       1 UNK         0.1762 
     37 O37         0.4427   -1.6728   -0.1233 O.3       1 UNK        -0.3524 
     38 O38        -0.3418   -0.5349   -4.4689 O.2       1 UNK        -0.4300 
     39 O39         1.1252   -0.2576   -2.7421 O.3       1 UNK        -0.3300 
     40 C40        -2.1280    6.4933    3.1118 C.3       1 UNK         0.1600 
     41 C41         0.1131   -3.8600   -1.6001 C.3       1 UNK        -0.1200 
     42 O42        -2.2418   -3.6655   -1.6308 O.3       1 UNK        -0.4000 
     43 C43         0.0454   -4.1424   -0.0974 C.3       1 UNK        -0.0600 
     44 C44        -0.0429   -2.6631    2.0226 C.3       1 UNK        -0.1800 
     45 C45         2.0898   -1.1087   -3.3395 C.3       1 UNK         0.1600 
     46 C46        -2.4531   -4.6132   -0.6011 C.3       1 UNK         0.3000 
     47 C47        -1.1446   -5.1107    0.1256 C.3       1 UNK         0.2650 
     48 O48        -2.9842   -5.7655   -1.2026 O.3       1 UNK        -0.2850 
     49 C49        -0.9821   -6.4675   -0.4829 C.2       1 UNK        -0.1150 
     50 O50        -1.3520   -5.2982    1.5111 O.3       1 UNK        -0.6830 
     51 C51        -2.0610   -6.7675   -1.1966 C.2       1 UNK        -0.0300 
     52 H52         5.7278   -1.5467   -2.6068 H         1 UNK         0.0600 
     53 H53         4.9197    0.0001   -2.4585 H         1 UNK         0.0600 
     54 H54         6.4718   -0.2643   -1.6515 H         1 UNK         0.0600 
     55 H55         5.2959   -2.1828   -0.2992 H         1 UNK         0.1150 
     56 H56         2.6392   -2.3516    0.9405 H         1 UNK         0.0600 
     57 H57         4.0951   -1.9143    1.8181 H         1 UNK         0.0600 
     58 H58         2.6914   -0.8636    1.9055 H         1 UNK         0.0600 
     59 H59         1.5707    2.4128   -0.6634 H         1 UNK         0.0300 
     60 H60         1.3886    1.5214    2.2055 H         1 UNK         0.0600 
     61 H61         2.5202    2.5905    1.4622 H         1 UNK         0.0600 
     62 H62         0.9460    3.8162    2.8955 H         1 UNK         0.0300 
     63 H63        -2.2258    1.2155   -1.0920 H         1 UNK         0.0600 
     64 H64        -2.3273    2.3168    0.6623 H         1 UNK         0.0600 
     65 H65         0.0569    3.7616   -1.2802 H         1 UNK         0.0300 
     66 H66        -1.6112    3.2892   -1.4890 H         1 UNK         0.0300 
     67 H67        -0.4590    0.3156    1.9306 H         1 UNK         0.0300 
     68 H68        -1.6979    2.9269    4.0860 H         1 UNK         0.0300 
     69 H69        -0.2633    1.9762    3.7862 H         1 UNK         0.0300 
     70 H70        -3.3018    0.2697    0.8900 H         1 UNK         0.0600 
     71 H71        -3.6791   -1.8234   -0.7588 H         1 UNK         0.0600 
     72 H72        -3.8941   -0.1547   -1.1965 H         1 UNK         0.0600 
     73 H73        -3.0178   -1.2051   -2.2672 H         1 UNK         0.0600 
     74 H74        -2.6647    1.7278   -2.8908 H         1 UNK         0.4180 
     75 H75         3.3242    6.3446    2.3752 H         1 UNK         0.0600 
     76 H76         1.9334    5.7283    3.2672 H         1 UNK         0.0600 
     77 H77         3.0970    4.6040    2.5362 H         1 UNK         0.0600 
     78 H78        -1.8297   -1.7734    2.0287 H         1 UNK         0.4180 
     79 H79        -1.0383   -2.3721   -2.6873 H         1 UNK         0.0300 
     80 H80        -1.7724    7.0361    3.9875 H         1 UNK         0.0300 
     81 H81        -1.9442    7.1101    2.2311 H         1 UNK         0.0300 
     82 H82        -3.2034    6.3441    3.2166 H         1 UNK         0.0300 
     83 H83         1.0593   -3.3850   -1.8603 H         1 UNK         0.0600 
     84 H84         0.0074   -4.7360   -2.2404 H         1 UNK         0.0600 
     85 H85         0.9838   -4.5598    0.2701 H         1 UNK         0.0600 
     86 H86        -0.9094   -3.0431    2.5592 H         1 UNK         0.0600 
     87 H87         0.1474   -1.6441    2.3425 H         1 UNK         0.0600 
     88 H88         0.8190   -3.2532    2.3343 H         1 UNK         0.0600 
     89 H89         1.6373   -2.0288   -3.7116 H         1 UNK         0.0300 
     90 H90         2.5830   -0.6035   -4.1704 H         1 UNK         0.0300 
     91 H91         2.8471   -1.3868   -2.6101 H         1 UNK         0.0300 
     92 H92        -3.1759   -4.1919    0.0988 H         1 UNK         0.1000 
     93 H93        -0.1147   -7.0926   -0.3313 H         1 UNK         0.1150 
     94 H94        -1.7629   -4.5243    1.8641 H         1 UNK         0.4180 
     95 H95        -2.3086   -7.6521   -1.7643 H         1 UNK         0.1150 
@<TRIPOS>BOND
     1    1    2 1    
     2    1   52 1    
     3    1   53 1    
     4    1   54 1    
     5    2    3 2    
     6    2   55 1    
     7    3    4 1    
     8    3    5 1    
     9    4   56 1    
    10    4   57 1    
    11    4   58 1    
    12    5    6 2    
    13    5    7 1    
    14    7    8 1    
    15    8    9 1    
    16    8   10 1    
    17    8   59 1    
    18    9   11 1    
    19    9   60 1    
    20    9   61 1    
    21   10   12 1    
    22   10   13 1    
    23   10   14 1    
    24   11   15 1    
    25   11   16 1    
    26   11   62 1    
    27   12   17 1    
    28   12   18 1    
    29   12   63 1    
    30   13   16 1    
    31   13   19 1    
    32   13   64 1    
    33   14   20 1    
    34   14   65 1    
    35   14   66 1    
    36   15   21 1    
    37   16   22 1    
    38   16   23 1    
    39   17   24 1    
    40   17   25 1    
    41   17   26 1    
    42   18   27 1    
    43   18   28 1    
    44   18   20 1    
    45   19   29 1    
    46   19   24 1    
    47   19   67 1    
    48   21   30 2    
    49   21   31 1    
    50   22   32 2    
    51   22   33 1    
    52   23   29 1    
    53   23   68 1    
    54   23   69 1    
    55   24   34 1    
    56   24   70 1    
    57   25   71 1    
    58   25   72 1    
    59   25   73 1    
    60   26   35 1    
    61   26   36 1    
    62   26   37 1    
    63   27   74 1    
    64   28   38 2    
    65   28   39 1    
    66   31   75 1    
    67   31   76 1    
    68   31   77 1    
    69   33   40 1    
    70   34   78 1    
    71   35   41 1    
    72   35   42 1    
    73   35   79 1    
    74   36   43 1    
    75   36   44 1    
    76   36   37 1    
    77   39   45 1    
    78   40   80 1    
    79   40   81 1    
    80   40   82 1    
    81   41   43 1    
    82   41   83 1    
    83   41   84 1    
    84   42   46 1    
    85   43   47 1    
    86   43   85 1    
    87   44   86 1    
    88   44   87 1    
    89   44   88 1    
    90   45   89 1    
    91   45   90 1    
    92   45   91 1    
    93   46   48 1    
    94   46   47 1    
    95   46   92 1    
    96   47   49 1    
    97   47   50 1    
    98   48   51 1    
    99   49   51 2    
   100   49   93 1    
   101   50   94 1    
   102   51   95 1    
@<TRIPOS>SUBSTRUCTURE
     1 UNK         1 GROUP             0       ****    0 ROOT    
