@<TRIPOS>MOLECULE
title: molecule 1
54   55    1
SMALL
USER_CHARGES


@<TRIPOS>ATOM
      1 C1          4.2835   -3.4580    0.1632 C.2       1 UNK         0.6150 
      2 O2          4.1861   -2.2640   -0.1302 O.2       1 UNK        -0.5000 
      3 C3          3.1583   -4.3649   -0.2338 C.ar      1 UNK        -0.1150 
      4 N4          5.3907   -3.9845    0.7622 N.am      1 UNK        -0.2000 
      5 C5          1.8552   -4.1245    0.2522 C.ar      1 UNK        -0.1150 
      6 C6          3.3755   -5.4156   -1.1502 C.ar      1 UNK        -0.1150 
      7 N7          6.5516   -3.1676    0.6560 N.am      1 UNK        -0.3000 
      8 C8          5.5208   -5.1807    1.6594 C.3       1 UNK         0.2000 
      9 C9          0.7865   -4.9591   -0.1334 C.ar      1 UNK        -0.1150 
     10 C10         2.3108   -6.2534   -1.5388 C.ar      1 UNK        -0.1150 
     11 C11         7.4163   -3.2719   -0.3702 C.2       1 UNK         0.6150 
     12 C12         6.0383   -6.3976    0.8650 C.3       1 UNK        -0.1800 
     13 C13         6.5356   -4.8947    2.7990 C.3       1 UNK        -0.1800 
     14 C14         4.1972   -5.5607    2.3703 C.3       1 UNK        -0.1800 
     15 C15         1.0176   -6.0255   -1.0261 C.ar      1 UNK        -0.1150 
     16 C16        -0.6068   -4.7049    0.4034 C.3       1 UNK        -0.0650 
     17 C17         2.5552   -7.3862   -2.5137 C.3       1 UNK        -0.0650 
     18 O18         7.3016   -4.0934   -1.2810 O.2       1 UNK        -0.5000 
     19 C19         8.5996   -2.3492   -0.3106 C.ar      1 UNK        -0.1150 
     20 C20         9.8437   -2.7655   -0.8344 C.ar      1 UNK        -0.1150 
     21 C21         8.4814   -1.0462    0.2275 C.ar      1 UNK        -0.1150 
     22 C22        10.9572   -1.9038   -0.8014 C.ar      1 UNK        -0.1150 
     23 C23         9.5952   -0.1849    0.2598 C.ar      1 UNK        -0.1150 
     24 C24        10.8376   -0.6115   -0.2515 C.ar      1 UNK        -0.1150 
     25 C25        12.0358    0.3181   -0.2196 C.3       1 UNK        -0.0050 
     26 C26        12.1357    1.1786   -1.4840 C.3       1 UNK        -0.1800 
     27 H27         1.6766   -3.3033    0.9318 H         1 UNK         0.1150 
     28 H28         4.3605   -5.5745   -1.5652 H         1 UNK         0.1150 
     29 H29         6.6245   -2.5105    1.4187 H         1 UNK         0.3000 
     30 H30         6.1995   -7.2521    1.5230 H         1 UNK         0.0600 
     31 H31         5.3390   -6.7230    0.0991 H         1 UNK         0.0600 
     32 H32         6.9898   -6.1872    0.3775 H         1 UNK         0.0600 
     33 H33         6.5876   -5.7245    3.5049 H         1 UNK         0.0600 
     34 H34         7.5515   -4.7521    2.4284 H         1 UNK         0.0600 
     35 H35         6.2569   -4.0062    3.3671 H         1 UNK         0.0600 
     36 H36         3.7216   -4.6928    2.8286 H         1 UNK         0.0600 
     37 H37         4.3695   -6.2876    3.1648 H         1 UNK         0.0600 
     38 H38         3.4798   -6.0328    1.7014 H         1 UNK         0.0600 
     39 H39         0.1990   -6.6634   -1.3265 H         1 UNK         0.1150 
     40 H40        -1.1800   -5.6312    0.4538 H         1 UNK         0.0600 
     41 H41        -0.5648   -4.2797    1.4066 H         1 UNK         0.0600 
     42 H42        -1.1372   -4.0068   -0.2444 H         1 UNK         0.0600 
     43 H43         3.5611   -7.7899   -2.3941 H         1 UNK         0.0600 
     44 H44         1.8451   -8.1982   -2.3542 H         1 UNK         0.0600 
     45 H45         2.4467   -7.0302   -3.5383 H         1 UNK         0.0600 
     46 H46         9.9533   -3.7518   -1.2622 H         1 UNK         0.1150 
     47 H47         7.5370   -0.6911    0.6140 H         1 UNK         0.1150 
     48 H48        11.9029   -2.2375   -1.2029 H         1 UNK         0.1150 
     49 H49         9.4912    0.8074    0.6738 H         1 UNK         0.1150 
     50 H50        11.9698    0.9593    0.6602 H         1 UNK         0.0600 
     51 H51        12.9453   -0.2720   -0.1007 H         1 UNK         0.0600 
     52 H52        13.0031    1.8373   -1.4381 H         1 UNK         0.0600 
     53 H53        12.2353    0.5584   -2.3753 H         1 UNK         0.0600 
     54 H54        11.2498    1.8023   -1.6066 H         1 UNK         0.0600 
@<TRIPOS>BOND
     1    1    2 2    
     2    1    3 1    
     3    1    4 am   BACKBONE|DICT|INTERRES
     4    3    5 ar   
     5    3    6 ar   
     6    4    7 1    
     7    4    8 1    
     8    5    9 ar   
     9    5   27 1    
    10    6   10 ar   
    11    6   28 1    
    12    7   11 am   BACKBONE|DICT|INTERRES
    13    7   29 1    
    14    8   12 1    
    15    8   13 1    
    16    8   14 1    
    17    9   15 ar   
    18    9   16 1    
    19   10   15 ar   
    20   10   17 1    
    21   11   18 2    
    22   11   19 1    
    23   12   30 1    
    24   12   31 1    
    25   12   32 1    
    26   13   33 1    
    27   13   34 1    
    28   13   35 1    
    29   14   36 1    
    30   14   37 1    
    31   14   38 1    
    32   15   39 1    
    33   16   40 1    
    34   16   41 1    
    35   16   42 1    
    36   17   43 1    
    37   17   44 1    
    38   17   45 1    
    39   19   20 ar   
    40   19   21 ar   
    41   20   22 ar   
    42   20   46 1    
    43   21   23 ar   
    44   21   47 1    
    45   22   24 ar   
    46   22   48 1    
    47   23   24 ar   
    48   23   49 1    
    49   24   25 1    
    50   25   26 1    
    51   25   50 1    
    52   25   51 1    
    53   26   52 1    
    54   26   53 1    
    55   26   54 1    
@<TRIPOS>SUBSTRUCTURE
     1 UNK         1 GROUP             0       ****    0 ROOT    
