@<TRIPOS>MOLECULE
title: molecule 1
30   30    1
SMALL
USER_CHARGES


@<TRIPOS>ATOM
      1 C1          3.7296   -2.7571    3.0644 C.3       1 UNK        -0.1800 
      2 C2          2.9122   -3.1147    1.8147 C.3       1 UNK         0.1700 
      3 C3          1.5770   -2.3639    1.7654 C.3       1 UNK        -0.1800 
      4 O4          3.6497   -2.7532    0.6508 O.3       1 UNK        -0.2850 
      5 C5          4.5540   -3.6858    0.2044 C.ar      1 UNK         0.0850 
      6 C6          5.9282   -3.3826    0.2867 C.ar      1 UNK        -0.1150 
      7 C7          4.1408   -4.9135   -0.3750 C.ar      1 UNK         0.1350 
      8 C8          6.8904   -4.3078   -0.1603 C.ar      1 UNK        -0.1150 
      9 C9          5.1105   -5.8432   -0.8049 C.ar      1 UNK        -0.1150 
     10 O10         2.8118   -5.2394   -0.4964 O.3       1 UNK        -0.2150 
     11 C11         6.4816   -5.5416   -0.7001 C.ar      1 UNK        -0.1150 
     12 C12         2.0621   -4.6545   -1.4527 C.2       1 UNK         0.6995 
     13 O13         2.4750   -3.8560   -2.2959 O.2       1 UNK        -0.4970 
     14 N14         0.7602   -5.1005   -1.3162 N.am      1 UNK        -0.5657 
     15 C15        -0.3209   -4.6567   -2.1805 C.3       1 UNK        -0.0280 
     16 H16         4.6664   -3.3138    3.0959 H         1 UNK         0.0600 
     17 H17         3.9730   -1.6945    3.0853 H         1 UNK         0.0600 
     18 H18         3.1771   -2.9919    3.9744 H         1 UNK         0.0600 
     19 H19         2.6983   -4.1837    1.8371 H         1 UNK         0.0300 
     20 H20         1.0119   -2.6350    0.8732 H         1 UNK         0.0600 
     21 H21         0.9604   -2.6001    2.6329 H         1 UNK         0.0600 
     22 H22         1.7308   -1.2846    1.7466 H         1 UNK         0.0600 
     23 H23         6.2451   -2.4390    0.7059 H         1 UNK         0.1150 
     24 H24         7.9419   -4.0722   -0.0858 H         1 UNK         0.1150 
     25 H25         4.8011   -6.7878   -1.2278 H         1 UNK         0.1150 
     26 H26         7.2191   -6.2543   -1.0388 H         1 UNK         0.1150 
     27 H27         0.5738   -5.7577   -0.5728 H         1 UNK         0.2912 
     28 H28        -1.2538   -5.1396   -1.8898 H         1 UNK         0.0600 
     29 H29        -0.4569   -3.5770   -2.1059 H         1 UNK         0.0600 
     30 H30        -0.1142   -4.9102   -3.2210 H         1 UNK         0.0600 
@<TRIPOS>BOND
     1    1    2 1    
     2    1   16 1    
     3    1   17 1    
     4    1   18 1    
     5    2    3 1    
     6    2    4 1    
     7    2   19 1    
     8    3   20 1    
     9    3   21 1    
    10    3   22 1    
    11    4    5 1    
    12    5    6 ar   
    13    5    7 ar   
    14    6    8 ar   
    15    6   23 1    
    16    7    9 ar   
    17    7   10 1    
    18    8   11 ar   
    19    8   24 1    
    20    9   11 ar   
    21    9   25 1    
    22   10   12 1    
    23   11   26 1    
    24   12   13 2    
    25   12   14 am   BACKBONE|DICT|INTERRES
    26   14   15 1    
    27   14   27 1    
    28   15   28 1    
    29   15   29 1    
    30   15   30 1    
@<TRIPOS>SUBSTRUCTURE
     1 UNK         1 GROUP             0       ****    0 ROOT    
