@<TRIPOS>MOLECULE
title: molecule 1
38   40    1
SMALL
USER_CHARGES


@<TRIPOS>ATOM
      1 C1          1.6443   -7.3138    0.5250 C.ar      1 UNK        -0.1150 
      2 C2          0.3190   -7.6882    0.2303 C.ar      1 UNK        -0.1150 
      3 C3          2.1264   -6.0412    0.1572 C.ar      1 UNK         0.1000 
      4 C4         -0.5356   -6.7878   -0.4336 C.ar      1 UNK        -0.1150 
      5 C5          1.2620   -5.1388   -0.5058 C.ar      1 UNK        -0.1150 
      6 O6          3.4233   -5.7235    0.4720 O.3       1 UNK        -0.2882 
      7 C7         -0.0636   -5.5132   -0.8006 C.ar      1 UNK        -0.1150 
      8 P8          4.3249   -4.5552   -0.2145 P.3       1 UNK         1.2307 
      9 O9          4.3581   -4.5667   -1.7048 O.2       1 UNK        -0.6661 
     10 O10         3.7300   -3.2093    0.4840 O.3       1 UNK        -0.2882 
     11 O11         5.7567   -4.7485    0.5376 O.3       1 UNK        -0.2882 
     12 C12         4.1965   -1.9439    0.2535 C.ar      1 UNK         0.1000 
     13 C13         6.8239   -3.8978    0.4267 C.ar      1 UNK         0.1000 
     14 C14         4.6771   -1.1805    1.3362 C.ar      1 UNK        -0.1150 
     15 C15         4.2036   -1.3945   -1.0465 C.ar      1 UNK        -0.1150 
     16 C16         7.4312   -3.4097    1.6011 C.ar      1 UNK        -0.1150 
     17 C17         7.3227   -3.5002   -0.8331 C.ar      1 UNK        -0.1150 
     18 C18         5.1807    0.1169    1.1204 C.ar      1 UNK        -0.1150 
     19 C19         4.7061   -0.0966   -1.2623 C.ar      1 UNK        -0.1150 
     20 C20         8.5167   -2.5161    1.5203 C.ar      1 UNK        -0.1150 
     21 C21         8.4079   -2.6063   -0.9140 C.ar      1 UNK        -0.1150 
     22 C22         5.1971    0.6583   -0.1795 C.ar      1 UNK        -0.1150 
     23 C23         9.0037   -2.1121    0.2623 C.ar      1 UNK        -0.1150 
     24 H24         2.2960   -8.0078    1.0353 H         1 UNK         0.1150 
     25 H25        -0.0418   -8.6659    0.5141 H         1 UNK         0.1150 
     26 H26        -1.5523   -7.0739   -0.6599 H         1 UNK         0.1150 
     27 H27         1.6003   -4.1548   -0.7938 H         1 UNK         0.1150 
     28 H28        -0.7190   -4.8209   -1.3082 H         1 UNK         0.1150 
     29 H29         4.6710   -1.5963    2.3330 H         1 UNK         0.1150 
     30 H30         3.8283   -1.9666   -1.8820 H         1 UNK         0.1150 
     31 H31         7.0555   -3.7131    2.5672 H         1 UNK         0.1150 
     32 H32         6.8754   -3.8735   -1.7420 H         1 UNK         0.1150 
     33 H33         5.5558    0.6956    1.9516 H         1 UNK         0.1150 
     34 H34         4.7153    0.3194   -2.2590 H         1 UNK         0.1150 
     35 H35         8.9741   -2.1391    2.4231 H         1 UNK         0.1150 
     36 H36         8.7831   -2.2996   -1.8793 H         1 UNK         0.1150 
     37 H37         5.5840    1.6530   -0.3457 H         1 UNK         0.1150 
     38 H38         9.8352   -1.4256    0.1997 H         1 UNK         0.1150 
@<TRIPOS>BOND
     1    1    2 ar   
     2    1    3 ar   
     3    1   24 1    
     4    2    4 ar   
     5    2   25 1    
     6    3    5 ar   
     7    3    6 1    
     8    4    7 ar   
     9    4   26 1    
    10    5    7 ar   
    11    5   27 1    
    12    6    8 1    
    13    7   28 1    
    14    8    9 2    
    15    8   10 1    
    16    8   11 1    
    17   10   12 1    
    18   11   13 1    
    19   12   14 ar   
    20   12   15 ar   
    21   13   16 ar   
    22   13   17 ar   
    23   14   18 ar   
    24   14   29 1    
    25   15   19 ar   
    26   15   30 1    
    27   16   20 ar   
    28   16   31 1    
    29   17   21 ar   
    30   17   32 1    
    31   18   22 ar   
    32   18   33 1    
    33   19   22 ar   
    34   19   34 1    
    35   20   23 ar   
    36   20   35 1    
    37   21   23 ar   
    38   21   36 1    
    39   22   37 1    
    40   23   38 1    
@<TRIPOS>SUBSTRUCTURE
     1 UNK         1 GROUP             0       ****    0 ROOT    
