@<TRIPOS>MOLECULE
title: molecule 1
25   27    1
SMALL
USER_CHARGES


@<TRIPOS>ATOM
      1 O1          2.0762   -4.6324    0.1812 O.3       1 UNK        -0.4375 
      2 S2          1.4620   -3.5430    1.3609 S.3       1 UNK         0.8900 
      3 C3          3.4744   -4.5662   -0.0701 C.3       1 UNK         0.1025 
      4 O4          1.5768   -1.9489    0.7286 O.3       1 UNK        -0.4375 
      5 O5         -0.0100   -3.8691    1.6183 O.2       1 UNK        -0.4600 
      6 C6          3.9142   -3.1449   -0.4856 C.3       1 UNK        -0.0600 
      7 C7          2.8031   -1.2632    0.9515 C.3       1 UNK         0.1025 
      8 C8          4.0377   -2.1678    0.7345 C.3       1 UNK        -0.0600 
      9 C9          5.3163   -3.0242   -1.1534 C.3       1 UNK         0.2000 
     10 C10         5.4206   -1.4919    0.4841 C.3       1 UNK         0.2000 
     11 C11         6.3628   -3.4919   -0.1582 C.2       1 UNK         0.1200 
     12 C12         5.5448   -1.4905   -1.0639 C.3       1 UNK         0.2716 
     13 Cl13        5.4102   -3.6910   -2.8073 Cl        1 UNK        -0.2000 
     14 C14         6.4382   -2.5746    0.8017 C.2       1 UNK         0.1200 
     15 Cl15        5.6638    0.0883    1.2816 Cl        1 UNK        -0.2000 
     16 Cl16        7.3560   -4.8674   -0.4772 Cl        1 UNK        -0.1200 
     17 Cl17        7.1740   -0.9917   -1.6322 Cl        1 UNK        -0.1358 
     18 Cl18        4.3239   -0.5006   -1.9261 Cl        1 UNK        -0.1358 
     19 Cl19        7.5491   -2.4105    2.1131 Cl        1 UNK        -0.1200 
     20 H20         3.6906   -5.2688   -0.8750 H         1 UNK         0.0600 
     21 H21         4.0251   -4.9167    0.8036 H         1 UNK         0.0600 
     22 H22         3.1716   -2.7782   -1.1952 H         1 UNK         0.0600 
     23 H23         2.8101   -0.8783    1.9718 H         1 UNK         0.0600 
     24 H24         2.8164   -0.3916    0.3002 H         1 UNK         0.0600 
     25 H25         4.1341   -2.7464    1.6558 H         1 UNK         0.0600 
@<TRIPOS>BOND
     1    1    2 1    
     2    1    3 1    
     3    2    4 1    
     4    2    5 2    
     5    3    6 1    
     6    3   20 1    
     7    3   21 1    
     8    4    7 1    
     9    6    8 1    
    10    6    9 1    
    11    6   22 1    
    12    7    8 1    
    13    7   23 1    
    14    7   24 1    
    15    8   10 1    
    16    8   25 1    
    17    9   11 1    
    18    9   12 1    
    19    9   13 1    
    20   10   14 1    
    21   10   12 1    
    22   10   15 1    
    23   11   14 2    
    24   11   16 1    
    25   12   17 1    
    26   12   18 1    
    27   14   19 1    
@<TRIPOS>SUBSTRUCTURE
     1 UNK         1 GROUP             0       ****    0 ROOT    
