@<TRIPOS>MOLECULE
title: molecule 1
9   8    1
SMALL
USER_CHARGES


@<TRIPOS>ATOM
      1 C1          1.2925   -0.9463   -0.0297 C.3       1 UNK        -0.2944 
      2 Cl2         1.5273   -2.1828   -1.2945 Cl        1 UNK         0.0120 
      3 Cl3         0.5988   -1.6989    1.4317 Cl        1 UNK         0.0120 
      4 Cl4         0.1695    0.2989   -0.6332 Cl        1 UNK         0.0120 
      5 C5          2.6356   -0.2775    0.3090 C.3       1 UNK         0.4034 
      6 O6          3.5714   -1.2186    0.7948 O.3       1 UNK        -0.6830 
      7 H7          3.0528    0.2068   -0.5746 H         1 UNK         0.0600 
      8 H8          2.4949    0.4975    1.0633 H         1 UNK         0.0600 
      9 H9          4.3786   -0.7677    0.9897 H         1 UNK         0.4180 
@<TRIPOS>BOND
     1    1    2 1    
     2    1    3 1    
     3    1    4 1    
     4    1    5 1    
     5    5    6 1    
     6    5    7 1    
     7    5    8 1    
     8    6    9 1    
@<TRIPOS>SUBSTRUCTURE
     1 UNK         1 GROUP             0       ****    0 ROOT    
