@<TRIPOS>MOLECULE
title: molecule 1
26   25    1
SMALL
USER_CHARGES


@<TRIPOS>ATOM
      1 C1          1.1658   -0.9092    1.7050 C.3       1 UNK        -0.1800 
      2 C2          1.9961   -1.1452    0.4262 C.3       1 UNK         0.2036 
      3 C3          3.4582   -1.3291    0.8223 C.2       1 UNK         0.3134 
      4 S4          1.3891   -2.6410   -0.4338 S.3       1 UNK        -0.3350 
      5 C5          1.8727    0.0872   -0.4959 C.3       1 UNK        -0.1800 
      6 N6          4.4017   -1.4576   -0.0137 N.2       1 UNK        -0.2897 
      7 C7         -0.3298   -2.2497   -0.8727 C.3       1 UNK        -0.0125 
      8 O8          5.6322   -1.6120    0.6470 O.3       1 UNK        -0.1800 
      9 C9          6.6674   -1.7448   -0.2160 C.2       1 UNK         0.6995 
     10 O10         6.5976   -1.7350   -1.4482 O.2       1 UNK        -0.4970 
     11 N11         7.8241   -1.8935    0.5277 N.am      1 UNK        -0.5657 
     12 C12         9.1361   -2.0617   -0.0757 C.3       1 UNK        -0.0280 
     13 H13         0.1247   -0.6828    1.4787 H         1 UNK         0.0600 
     14 H14         1.1765   -1.7842    2.3565 H         1 UNK         0.0600 
     15 H15         1.5492   -0.0653    2.2806 H         1 UNK         0.0600 
     16 H16         3.6406   -1.3460    1.9016 H         1 UNK         0.0402 
     17 H17         2.3665   -0.0764   -1.4548 H         1 UNK         0.0600 
     18 H18         0.8329    0.3379   -0.7025 H         1 UNK         0.0600 
     19 H19         2.3224    0.9713   -0.0415 H         1 UNK         0.0600 
     20 H20        -0.7753   -3.1009   -1.3873 H         1 UNK         0.0600 
     21 H21        -0.9295   -2.0458    0.0131 H         1 UNK         0.0600 
     22 H22        -0.3811   -1.3928   -1.5432 H         1 UNK         0.0600 
     23 H23         7.7293   -1.8822    1.5327 H         1 UNK         0.2912 
     24 H24         9.8947   -2.1594    0.7009 H         1 UNK         0.0600 
     25 H25         9.1647   -2.9581   -0.6965 H         1 UNK         0.0600 
     26 H26         9.3903   -1.2011   -0.6957 H         1 UNK         0.0600 
@<TRIPOS>BOND
     1    1    2 1    
     2    1   13 1    
     3    1   14 1    
     4    1   15 1    
     5    2    3 1    
     6    2    4 1    
     7    2    5 1    
     8    3    6 2    
     9    3   16 1    
    10    4    7 1    
    11    5   17 1    
    12    5   18 1    
    13    5   19 1    
    14    6    8 1    
    15    7   20 1    
    16    7   21 1    
    17    7   22 1    
    18    8    9 1    
    19    9   10 2    
    20    9   11 am   BACKBONE|DICT|INTERRES
    21   11   12 1    
    22   11   23 1    
    23   12   24 1    
    24   12   25 1    
    25   12   26 1    
@<TRIPOS>SUBSTRUCTURE
     1 UNK         1 GROUP             0       ****    0 ROOT    
