@<TRIPOS>MOLECULE
title: molecule 1
25   26    1
SMALL
USER_CHARGES


@<TRIPOS>ATOM
      1 O1          4.1306   -5.2521    2.5213 O.2       1 UNK        -0.5300 
      2 S2          2.9706   -4.5950    1.8987 S.o2      1 UNK         0.7840 
      3 O3          1.9201   -4.0260    2.7581 O.2       1 UNK        -0.5300 
      4 C4          3.5587   -3.2978    0.7965 C.ar      1 UNK         0.1380 
      5 C5          2.1786   -5.7538    0.7878 C.ar      1 UNK         0.1380 
      6 C6          2.8395   -2.0838    0.7628 C.ar      1 UNK        -0.1150 
      7 C7          4.6824   -3.4752   -0.0492 C.ar      1 UNK         0.1800 
      8 C8          2.8277   -6.9528    0.4290 C.ar      1 UNK        -0.1150 
      9 C9          0.9111   -5.4398    0.2577 C.ar      1 UNK        -0.1150 
     10 C10         3.2432   -1.0391   -0.0902 C.ar      1 UNK         0.1800 
     11 C11         5.0805   -2.4241   -0.8992 C.ar      1 UNK        -0.1150 
     12 Cl12        5.5884   -4.9460   -0.0986 Cl        1 UNK        -0.1800 
     13 C13         2.1991   -7.8450   -0.4615 C.ar      1 UNK        -0.1150 
     14 C14         0.2865   -6.3354   -0.6322 C.ar      1 UNK        -0.1150 
     15 C15         4.3699   -1.2086   -0.9227 C.ar      1 UNK         0.1800 
     16 Cl16        2.3438    0.4360   -0.1018 Cl        1 UNK        -0.1800 
     17 C17         0.9296   -7.5372   -0.9913 C.ar      1 UNK         0.1800 
     18 Cl18        4.8910    0.0539   -1.9808 Cl        1 UNK        -0.1800 
     19 Cl19        0.1629   -8.6319   -2.0823 Cl        1 UNK        -0.1800 
     20 H20         1.9733   -1.9421    1.3918 H         1 UNK         0.1150 
     21 H21         3.8012   -7.1927    0.8305 H         1 UNK         0.1150 
     22 H22         0.4190   -4.5173    0.5297 H         1 UNK         0.1150 
     23 H23         5.9376   -2.5534   -1.5439 H         1 UNK         0.1150 
     24 H24         2.6921   -8.7654   -0.7384 H         1 UNK         0.1150 
     25 H25        -0.6856   -6.0993   -1.0398 H         1 UNK         0.1150 
@<TRIPOS>BOND
     1    1    2 2    
     2    2    3 2    
     3    2    4 1    
     4    2    5 1    
     5    4    6 ar   
     6    4    7 ar   
     7    5    8 ar   
     8    5    9 ar   
     9    6   10 ar   
    10    6   20 1    
    11    7   11 ar   
    12    7   12 1    
    13    8   13 ar   
    14    8   21 1    
    15    9   14 ar   
    16    9   22 1    
    17   10   15 ar   
    18   10   16 1    
    19   11   15 ar   
    20   11   23 1    
    21   13   17 ar   
    22   13   24 1    
    23   14   17 ar   
    24   14   25 1    
    25   15   18 1    
    26   17   19 1    
@<TRIPOS>SUBSTRUCTURE
     1 UNK         1 GROUP             0       ****    0 ROOT    
