@<TRIPOS>MOLECULE
title: molecule 1
66   66    1
SMALL
USER_CHARGES


@<TRIPOS>ATOM
      1 O1          8.8342   -2.6010   -1.0080 O.2       1 UNK        -0.4300 
      2 C2          9.5490   -3.4765   -0.5165 C.2       1 UNK         0.6250 
      3 C3          9.0954   -4.8760   -0.2396 C.ar      1 UNK        -0.1150 
      4 O4         10.8391   -3.2844   -0.1786 O.3       1 UNK        -0.3300 
      5 C5          7.7797   -5.2143    0.2118 C.ar      1 UNK        -0.1150 
      6 C6         10.0221   -5.9185   -0.4911 C.ar      1 UNK        -0.1150 
      7 C7         11.4400   -2.0123   -0.3667 C.3       1 UNK         0.1900 
      8 C8          7.4373   -6.5815    0.3610 C.ar      1 UNK        -0.1150 
      9 C9          6.7416   -4.2046    0.5900 C.2       1 UNK         0.6250 
     10 C10         9.6651   -7.2677   -0.3253 C.ar      1 UNK        -0.1150 
     11 C11        12.8957   -2.0361    0.1346 C.3       1 UNK        -0.0600 
     12 C12         8.3686   -7.6000    0.0950 C.ar      1 UNK        -0.1150 
     13 O13         6.9856   -3.1432    1.1669 O.2       1 UNK        -0.4300 
     14 O14         5.5007   -4.5957    0.2390 O.3       1 UNK        -0.3300 
     15 C15        13.6222   -0.7622   -0.3522 C.3       1 UNK        -0.1200 
     16 C16        12.9511   -2.2109    1.6728 C.3       1 UNK        -0.1200 
     17 C17         4.3884   -3.7585    0.5156 C.3       1 UNK         0.1900 
     18 C18        15.1338   -0.7304   -0.0738 C.3       1 UNK        -0.1200 
     19 C19        14.0693   -3.1487    2.1513 C.3       1 UNK        -0.1800 
     20 C20         3.0918   -4.3936   -0.0226 C.3       1 UNK        -0.0600 
     21 C21        15.8262    0.4765   -0.7232 C.3       1 UNK        -0.1200 
     22 C22         1.8625   -3.6136    0.5032 C.3       1 UNK        -0.1200 
     23 C23         3.1373   -4.4715   -1.5680 C.3       1 UNK        -0.1200 
     24 C24        17.3314    0.5151   -0.4367 C.3       1 UNK        -0.1800 
     25 C25         0.6661   -4.5065    0.8792 C.3       1 UNK        -0.1200 
     26 C26         1.9639   -5.2160   -2.2174 C.3       1 UNK        -0.1800 
     27 C27        -0.5402   -3.6947    1.3724 C.3       1 UNK        -0.1200 
     28 C28        -1.7297   -4.5819    1.7557 C.3       1 UNK        -0.1800 
     29 H29        11.0208   -5.6968   -0.8399 H         1 UNK         0.1150 
     30 H30        11.4133   -1.7681   -1.4297 H         1 UNK         0.0300 
     31 H31        10.8707   -1.2435    0.1582 H         1 UNK         0.0300 
     32 H32         6.4547   -6.8696    0.7067 H         1 UNK         0.1150 
     33 H33        10.3845   -8.0471   -0.5294 H         1 UNK         0.1150 
     34 H34        13.3760   -2.8951   -0.3368 H         1 UNK         0.0600 
     35 H35         8.0894   -8.6356    0.2220 H         1 UNK         0.1150 
     36 H36        13.4743   -0.6708   -1.4292 H         1 UNK         0.0600 
     37 H37        13.1538    0.1191    0.0882 H         1 UNK         0.0600 
     38 H38        13.0442   -1.2397    2.1601 H         1 UNK         0.0600 
     39 H39        12.0099   -2.6236    2.0375 H         1 UNK         0.0600 
     40 H40         4.3190   -3.6228    1.5959 H         1 UNK         0.0300 
     41 H41         4.5391   -2.7728    0.0726 H         1 UNK         0.0300 
     42 H42        15.3080   -0.6962    1.0014 H         1 UNK         0.0600 
     43 H43        15.5923   -1.6503   -0.4390 H         1 UNK         0.0600 
     44 H44        14.0591   -3.2366    3.2379 H         1 UNK         0.0600 
     45 H45        13.9406   -4.1502    1.7397 H         1 UNK         0.0600 
     46 H46        15.0574   -2.7960    1.8603 H         1 UNK         0.0600 
     47 H47         3.0500   -5.4085    0.3759 H         1 UNK         0.0600 
     48 H48        15.6676    0.4544   -1.8019 H         1 UNK         0.0600 
     49 H49        15.3686    1.3985   -0.3627 H         1 UNK         0.0600 
     50 H50         2.1389   -3.0532    1.3972 H         1 UNK         0.0600 
     51 H51         1.5585   -2.8611   -0.2256 H         1 UNK         0.0600 
     52 H52         3.2010   -3.4666   -1.9870 H         1 UNK         0.0600 
     53 H53         4.0540   -4.9773   -1.8730 H         1 UNK         0.0600 
     54 H54        17.7947    1.3811   -0.9098 H         1 UNK         0.0600 
     55 H55        17.5272    0.5768    0.6341 H         1 UNK         0.0600 
     56 H56        17.8280   -0.3775   -0.8180 H         1 UNK         0.0600 
     57 H57         0.3614   -5.1158    0.0300 H         1 UNK         0.0600 
     58 H58         0.9712   -5.2057    1.6587 H         1 UNK         0.0600 
     59 H59         2.1344   -5.3416   -3.2868 H         1 UNK         0.0600 
     60 H60         1.8347   -6.2081   -1.7841 H         1 UNK         0.0600 
     61 H61         1.0299   -4.6663   -2.1042 H         1 UNK         0.0600 
     62 H62        -0.2497   -3.0924    2.2340 H         1 UNK         0.0600 
     63 H63        -0.8512   -2.9940    0.5967 H         1 UNK         0.0600 
     64 H64        -2.5692   -3.9782    2.1010 H         1 UNK         0.0600 
     65 H65        -2.0719   -5.1714    0.9047 H         1 UNK         0.0600 
     66 H66        -1.4644   -5.2719    2.5573 H         1 UNK         0.0600 
@<TRIPOS>BOND
     1    1    2 2    
     2    2    3 1    
     3    2    4 1    
     4    3    5 ar   
     5    3    6 ar   
     6    4    7 1    
     7    5    8 ar   
     8    5    9 1    
     9    6   10 ar   
    10    6   29 1    
    11    7   11 1    
    12    7   30 1    
    13    7   31 1    
    14    8   12 ar   
    15    8   32 1    
    16    9   13 2    
    17    9   14 1    
    18   10   12 ar   
    19   10   33 1    
    20   11   15 1    
    21   11   16 1    
    22   11   34 1    
    23   12   35 1    
    24   14   17 1    
    25   15   18 1    
    26   15   36 1    
    27   15   37 1    
    28   16   19 1    
    29   16   38 1    
    30   16   39 1    
    31   17   20 1    
    32   17   40 1    
    33   17   41 1    
    34   18   21 1    
    35   18   42 1    
    36   18   43 1    
    37   19   44 1    
    38   19   45 1    
    39   19   46 1    
    40   20   22 1    
    41   20   23 1    
    42   20   47 1    
    43   21   24 1    
    44   21   48 1    
    45   21   49 1    
    46   22   25 1    
    47   22   50 1    
    48   22   51 1    
    49   23   26 1    
    50   23   52 1    
    51   23   53 1    
    52   24   54 1    
    53   24   55 1    
    54   24   56 1    
    55   25   27 1    
    56   25   57 1    
    57   25   58 1    
    58   26   59 1    
    59   26   60 1    
    60   26   61 1    
    61   27   28 1    
    62   27   62 1    
    63   27   63 1    
    64   28   64 1    
    65   28   65 1    
    66   28   66 1    
@<TRIPOS>SUBSTRUCTURE
     1 UNK         1 GROUP             0       ****    0 ROOT    
