@<TRIPOS>MOLECULE
title: molecule 1
13   13    1
SMALL
USER_CHARGES


@<TRIPOS>ATOM
      1 O1          5.5336   -2.1915    0.1023 O.3       1 UNK        -0.5850 
      2 C2          4.1676   -2.1808    0.0996 C.ar      1 UNK         0.1500 
      3 C3          3.4656   -0.9556    0.0930 C.ar      1 UNK         0.2000 
      4 C4          3.4540   -3.3986    0.1035 C.ar      1 UNK         0.2000 
      5 Br5         4.4036    0.7028    0.0877 Br        1 UNK        -0.2000 
      6 C6          2.0569   -0.9521    0.0903 C.ar      1 UNK        -0.1150 
      7 C7          2.0455   -3.3904    0.1007 C.ar      1 UNK        -0.1150 
      8 Br8         4.3825   -5.0622    0.1124 Br        1 UNK        -0.2000 
      9 C9          1.3471   -2.1680    0.0941 C.ar      1 UNK         0.2000 
     10 Br10       -0.5556   -2.1592    0.0905 Br        1 UNK        -0.2000 
     11 H11         5.8932   -3.0659    0.1067 H         1 UNK         0.4350 
     12 H12         1.5203   -0.0148    0.0852 H         1 UNK         0.1150 
     13 H13         1.5005   -4.3229    0.1037 H         1 UNK         0.1150 
@<TRIPOS>BOND
     1    1    2 1    
     2    1   11 1    
     3    2    3 ar   
     4    2    4 ar   
     5    3    5 1    
     6    3    6 ar   
     7    4    7 ar   
     8    4    8 1    
     9    6    9 ar   
    10    6   12 1    
    11    7    9 ar   
    12    7   13 1    
    13    9   10 1    
@<TRIPOS>SUBSTRUCTURE
     1 UNK         1 GROUP             0       ****    0 ROOT    
