@<TRIPOS>MOLECULE
title: molecule 1
21   21    1
SMALL
USER_CHARGES


@<TRIPOS>ATOM
      1 C1          4.7900   -1.8426    0.0793 C.ar      1 UNK         0.0900 
      2 N2          6.0969   -1.1646    0.0652 N.pl3     1 UNK         0.6500 
      3 C3          3.5647   -1.1207    0.0758 C.ar      1 UNK        -0.1150 
      4 C4          4.7725   -3.2533    0.0984 C.ar      1 UNK        -0.1150 
      5 O5          6.2961   -0.2727    0.8831 O.co2     1 UNK        -0.3700 
      6 O6          6.9290   -1.5552   -0.7464 O.co2     1 UNK        -0.3700 
      7 C7          2.3374   -1.8360    0.1452 C.ar      1 UNK         0.0900 
      8 C8          3.5656    0.4020   -0.0400 C.3       1 UNK        -0.0650 
      9 C9          3.5586   -3.9704    0.1351 C.ar      1 UNK         0.0900 
     10 N10         1.0353   -1.1510    0.2012 N.pl3     1 UNK         0.6500 
     11 C11         2.3484   -3.2467    0.1635 C.ar      1 UNK        -0.1150 
     12 N12         3.5551   -5.4468    0.1547 N.pl3     1 UNK         0.6500 
     13 O13         0.8851   -0.2581    1.0286 O.co2     1 UNK        -0.3700 
     14 O14         0.1587   -1.5370   -0.5644 O.co2     1 UNK        -0.3700 
     15 O15         2.4737   -6.0246    0.1914 O.co2     1 UNK        -0.3700 
     16 O16         4.6339   -6.0304    0.1333 O.co2     1 UNK        -0.3700 
     17 H17         5.7126   -3.7859    0.0920 H         1 UNK         0.1150 
     18 H18         2.6831    0.7691   -0.5633 H         1 UNK         0.0600 
     19 H19         3.5935    0.8566    0.9505 H         1 UNK         0.0600 
     20 H20         4.4208    0.7644   -0.6100 H         1 UNK         0.0600 
     21 H21         1.4064   -3.7744    0.2077 H         1 UNK         0.1150 
@<TRIPOS>BOND
     1    1    2 1    
     2    1    3 ar   
     3    1    4 ar   
     4    2    5 1    
     5    2    6 2    
     6    3    7 ar   
     7    3    8 1    
     8    4    9 ar   
     9    4   17 1    
    10    7   10 1    
    11    7   11 ar   
    12    8   18 1    
    13    8   19 1    
    14    8   20 1    
    15    9   12 1    
    16    9   11 ar   
    17   10   13 1    
    18   10   14 2    
    19   11   21 1    
    20   12   15 1    
    21   12   16 2    
@<TRIPOS>SUBSTRUCTURE
     1 UNK         1 GROUP             0       ****    0 ROOT    
