@<TRIPOS>MOLECULE
title: molecule 1
16   17    1
SMALL
USER_CHARGES


@<TRIPOS>ATOM
      1 N1          3.7496   -0.1180    0.1232 N.pl3     1 UNK        -0.4786 
      2 C2          4.5862   -1.2208    0.1360 C.ar      1 UNK        -0.1072 
      3 C3          2.4254   -0.5101    0.0999 C.ar      1 UNK         0.2860 
      4 C4          3.8217   -2.3586    0.1213 C.ar      1 UNK        -0.2567 
      5 C5          2.4479   -1.9361    0.0983 C.ar      1 UNK         0.1233 
      6 C6          1.2212    0.2170    0.0803 C.ar      1 UNK        -0.3541 
      7 C7          1.2005   -2.6039    0.0760 C.ar      1 UNK        -0.2243 
      8 C8         -0.0032   -0.4757    0.0584 C.ar      1 UNK        -0.0888 
      9 C9         -0.0118   -1.8840    0.0562 C.ar      1 UNK        -0.2222 
     10 H10         4.0882    0.8334    0.1303 H         1 UNK         0.3577 
     11 H11         5.6604   -1.1062    0.1546 H         1 UNK         0.1929 
     12 H12         4.1730   -3.3798    0.1259 H         1 UNK         0.1377 
     13 H13         1.2357    1.2968    0.0821 H         1 UNK         0.1796 
     14 H14         1.1778   -3.6836    0.0741 H         1 UNK         0.1699 
     15 H15        -0.9346    0.0712    0.0432 H         1 UNK         0.1359 
     16 H16        -0.9522   -2.4153    0.0394 H         1 UNK         0.1489 
@<TRIPOS>BOND
     1    1    2 ar   
     2    1    3 ar   
     3    1   10 1    
     4    2    4 ar   
     5    2   11 1    
     6    3    5 ar   
     7    3    6 ar   
     8    4    5 ar   
     9    4   12 1    
    10    5    7 ar   
    11    6    8 ar   
    12    6   13 1    
    13    7    9 ar   
    14    7   14 1    
    15    8    9 ar   
    16    8   15 1    
    17    9   16 1    
@<TRIPOS>SUBSTRUCTURE
     1 UNK         1 GROUP             0       ****    0 ROOT    
