@<TRIPOS>MOLECULE
title: molecule 1
12   12    1
SMALL
USER_CHARGES


@<TRIPOS>ATOM
      1 O1          0.1508   -0.9318    0.0866 O.2       1 UNK        -0.6163 
      2 C2          1.3785   -0.9354    0.0897 C.2       1 UNK         0.7661 
      3 N3          2.1648    0.1425    0.0748 N.am      1 UNK        -0.5181 
      4 N4          2.1583   -2.0179    0.1087 N.am      1 UNK        -0.5181 
      5 C5          3.5789   -0.1767    0.0833 C.3       1 UNK         0.0320 
      6 C6          3.5743   -1.7070    0.1074 C.3       1 UNK         0.0320 
      7 H7          1.8184    1.0906    0.0590 H         1 UNK         0.2912 
      8 H8          1.8063   -2.9639    0.1227 H         1 UNK         0.2912 
      9 H9          4.0618    0.2448    0.9657 H         1 UNK         0.0600 
     10 H10         4.0662    0.2169   -0.8094 H         1 UNK         0.0600 
     11 H11         4.0592   -2.1314   -0.7725 H         1 UNK         0.0600 
     12 H12         4.0547   -2.1035    1.0026 H         1 UNK         0.0600 
@<TRIPOS>BOND
     1    1    2 2    
     2    2    3 am   BACKBONE|DICT|INTERRES
     3    2    4 am   BACKBONE|DICT|INTERRES
     4    3    5 1    
     5    3    7 1    
     6    4    6 1    
     7    4    8 1    
     8    5    6 1    
     9    5    9 1    
    10    5   10 1    
    11    6   11 1    
    12    6   12 1    
@<TRIPOS>SUBSTRUCTURE
     1 UNK         1 GROUP             0       ****    0 ROOT    
