@<TRIPOS>MOLECULE
title: molecule 1
14   14    1
SMALL
USER_CHARGES


@<TRIPOS>ATOM
      1 Cl1        -0.1769    0.4685    0.1409 Cl        1 UNK        -0.1800 
      2 C2          0.7107   -1.0108    0.1228 C.ar      1 UNK         0.1800 
      3 C3          2.1189   -0.9861    0.1009 C.ar      1 UNK        -0.1150 
      4 C4          0.0271   -2.2410    0.1300 C.ar      1 UNK        -0.1150 
      5 C5          2.8603   -2.1913    0.0859 C.ar      1 UNK         0.0900 
      6 C6          0.7532   -3.4462    0.1152 C.ar      1 UNK        -0.1150 
      7 N7          4.3362   -2.1651    0.0629 N.pl3     1 UNK         0.6500 
      8 C8          2.1613   -3.4218    0.0933 C.ar      1 UNK        -0.1150 
      9 O9          4.9361   -3.2352    0.0505 O.co2     1 UNK        -0.3700 
     10 O10         4.8978   -1.0744    0.0573 O.co2     1 UNK        -0.3700 
     11 H11         2.6242   -0.0313    0.0957 H         1 UNK         0.1150 
     12 H12        -1.0528   -2.2614    0.1468 H         1 UNK         0.1150 
     13 H13         0.2300   -4.3912    0.1207 H         1 UNK         0.1150 
     14 H14         2.6982   -4.3591    0.0822 H         1 UNK         0.1150 
@<TRIPOS>BOND
     1    1    2 1    
     2    2    3 ar   
     3    2    4 ar   
     4    3    5 ar   
     5    3   11 1    
     6    4    6 ar   
     7    4   12 1    
     8    5    7 1    
     9    5    8 ar   
    10    6    8 ar   
    11    6   13 1    
    12    7    9 2    
    13    7   10 1    
    14    8   14 1    
@<TRIPOS>SUBSTRUCTURE
     1 UNK         1 GROUP             0       ****    0 ROOT    
