@<TRIPOS>MOLECULE
title: molecule 1
38   37    1
SMALL
USER_CHARGES


@<TRIPOS>ATOM
      1 O1          2.4362   -5.1149    2.3281 O.2       1 UNK        -0.4300 
      2 C2          2.9375   -5.1444    1.2031 C.2       1 UNK         0.5100 
      3 C3          3.5850   -3.9095    0.5735 C.3       1 UNK        -0.0525 
      4 O4          3.0018   -6.2191    0.4025 O.3       1 UNK        -0.3300 
      5 S5          5.3143   -3.7415    1.1217 S.3       1 UNK        -0.1050 
      6 C6          2.7826   -2.6280    0.8909 C.3       1 UNK        -0.1200 
      7 C7          2.4685   -7.4565    0.8417 C.3       1 UNK         0.1900 
      8 P8          6.3360   -5.2907    0.0449 P.3       1 UNK         1.0634 
      9 C9          2.8718   -1.5490   -0.1918 C.2       1 UNK         0.5100 
     10 C10         2.7053   -8.5156   -0.2374 C.3       1 UNK        -0.1800 
     11 S11         6.5348   -6.9770    1.0289 S.2       1 UNK        -0.5895 
     12 O12         5.5176   -5.3773   -1.3591 O.3       1 UNK        -0.4611 
     13 O13         7.7136   -4.5541   -0.4169 O.3       1 UNK        -0.4611 
     14 O14         3.5685   -1.6770   -1.2001 O.2       1 UNK        -0.4300 
     15 O15         2.1166   -0.4800    0.1039 O.3       1 UNK        -0.3300 
     16 C16         5.6136   -4.3516   -2.3295 C.3       1 UNK         0.0929 
     17 C17         8.7163   -4.2059    0.5195 C.3       1 UNK         0.0929 
     18 C18         2.0804    0.6216   -0.7883 C.3       1 UNK         0.1900 
     19 C19         1.1531    1.7006   -0.2238 C.3       1 UNK        -0.1800 
     20 H20         3.5824   -4.0694   -0.5040 H         1 UNK         0.0600 
     21 H21         1.7256   -2.8694    1.0100 H         1 UNK         0.0600 
     22 H22         3.1089   -2.2040    1.8411 H         1 UNK         0.0600 
     23 H23         2.9497   -7.7579    1.7733 H         1 UNK         0.0300 
     24 H24         1.4008   -7.3516    1.0391 H         1 UNK         0.0300 
     25 H25         2.3075   -9.4816    0.0733 H         1 UNK         0.0600 
     26 H26         2.2190   -8.2379   -1.1728 H         1 UNK         0.0600 
     27 H27         3.7700   -8.6406   -0.4364 H         1 UNK         0.0600 
     28 H28         4.7487   -4.3857   -2.9917 H         1 UNK         0.0600 
     29 H29         5.6512   -3.3638   -1.8700 H         1 UNK         0.0600 
     30 H30         6.5122   -4.4852   -2.9320 H         1 UNK         0.0600 
     31 H31         9.2429   -5.0944    0.8685 H         1 UNK         0.0600 
     32 H32         9.4439   -3.5437    0.0509 H         1 UNK         0.0600 
     33 H33         8.2949   -3.6900    1.3825 H         1 UNK         0.0600 
     34 H34         3.0856    1.0239   -0.9216 H         1 UNK         0.0300 
     35 H35         1.7233    0.2951   -1.7661 H         1 UNK         0.0300 
     36 H36         1.1074    2.5605   -0.8920 H         1 UNK         0.0600 
     37 H37         0.1391    1.3202   -0.0986 H         1 UNK         0.0600 
     38 H38         1.5039    2.0503    0.7475 H         1 UNK         0.0600 
@<TRIPOS>BOND
     1    1    2 2    
     2    2    3 1    
     3    2    4 1    
     4    3    5 1    
     5    3    6 1    
     6    3   20 1    
     7    4    7 1    
     8    5    8 1    
     9    6    9 1    
    10    6   21 1    
    11    6   22 1    
    12    7   10 1    
    13    7   23 1    
    14    7   24 1    
    15    8   11 2    
    16    8   12 1    
    17    8   13 1    
    18    9   14 2    
    19    9   15 1    
    20   10   25 1    
    21   10   26 1    
    22   10   27 1    
    23   12   16 1    
    24   13   17 1    
    25   15   18 1    
    26   16   28 1    
    27   16   29 1    
    28   16   30 1    
    29   17   31 1    
    30   17   32 1    
    31   17   33 1    
    32   18   19 1    
    33   18   34 1    
    34   18   35 1    
    35   19   36 1    
    36   19   37 1    
    37   19   38 1    
@<TRIPOS>SUBSTRUCTURE
     1 UNK         1 GROUP             0       ****    0 ROOT    
