@<TRIPOS>MOLECULE
title: molecule 1
55   56    1
SMALL
USER_CHARGES


@<TRIPOS>ATOM
      1 C1         10.1187    4.1142   -1.0820 C.2       1 UNK         0.0000 
      2 C2          9.6665    3.5816    0.0759 C.2       1 UNK        -0.1150 
      3 C3         10.6663    5.4960   -1.1455 C.2       1 UNK         0.5100 
      4 C4         10.1134    3.3625   -2.4069 C.3       1 UNK        -0.1800 
      5 C5          9.1090    2.2146    0.2499 C.3       1 UNK        -0.0600 
      6 O6         10.6628    6.1324    0.0450 O.3       1 UNK        -0.3300 
      7 O7         11.0841    6.0077   -2.1863 O.2       1 UNK        -0.4300 
      8 C8          9.3023    1.4623    1.5545 C.3       1 UNK        -0.0600 
      9 C9         10.0145    0.9980    0.2913 C.3       1 UNK         0.0000 
     10 C10        11.1581    7.4573    0.1383 C.3       1 UNK         0.1600 
     11 C11         8.1915    0.6005    2.0944 C.2       1 UNK         0.5100 
     12 C12         9.5854   -0.2408   -0.4850 C.3       1 UNK        -0.1800 
     13 C13        11.5280    1.1351    0.2422 C.3       1 UNK        -0.1800 
     14 O14         6.9738    1.1372    1.8938 O.3       1 UNK        -0.3300 
     15 O15         8.4171   -0.4646    2.6691 O.2       1 UNK        -0.4300 
     16 C16         5.8072    0.4535    2.3307 C.3       1 UNK         0.2890 
     17 C17         4.6486    1.4241    2.4268 C.2       1 UNK        -0.0690 
     18 C18         5.3456   -0.5768    1.2751 C.3       1 UNK        -0.1200 
     19 C19         4.7016    2.5414    3.4508 C.3       1 UNK        -0.1800 
     20 C20         3.6652    1.1749    1.5519 C.2       1 UNK         0.0000 
     21 C21         4.0241   -0.0067    0.7744 C.2       1 UNK         0.4700 
     22 C22         2.3429    1.8945    1.3480 C.3       1 UNK        -0.1200 
     23 O23         3.3845   -0.5077   -0.1487 O.2       1 UNK        -0.4700 
     24 C24         2.4870    2.9721    0.2932 C.2       1 UNK        -0.1150 
     25 C25         1.8021    2.9993   -0.8613 C.2       1 UNK        -0.1150 
     26 C26         1.9676    4.0464   -1.8469 C.2       1 UNK        -0.1150 
     27 C27         1.2845    4.0738   -3.0010 C.2       1 UNK        -0.2300 
     28 H28         9.6877    4.1605    0.9876 H         1 UNK         0.1150 
     29 H29         9.5394    3.9111   -3.1545 H         1 UNK         0.0600 
     30 H30        11.1317    3.2418   -2.7781 H         1 UNK         0.0600 
     31 H31         9.6738    2.3696   -2.3209 H         1 UNK         0.0600 
     32 H32         8.1497    2.1041   -0.2535 H         1 UNK         0.0600 
     33 H33         9.9275    1.9367    2.3083 H         1 UNK         0.0600 
     34 H34        11.0787    7.8110    1.1662 H         1 UNK         0.0300 
     35 H35        12.2070    7.5022   -0.1572 H         1 UNK         0.0300 
     36 H36        10.5857    8.1324   -0.4992 H         1 UNK         0.0300 
     37 H37         9.9532   -1.1421    0.0063 H         1 UNK         0.0600 
     38 H38         8.4996   -0.3076   -0.5591 H         1 UNK         0.0600 
     39 H39         9.9863   -0.2100   -1.4985 H         1 UNK         0.0600 
     40 H40        12.0026    0.2402    0.6454 H         1 UNK         0.0600 
     41 H41        11.8639    1.2748   -0.7857 H         1 UNK         0.0600 
     42 H42        11.8633    1.9897    0.8306 H         1 UNK         0.0600 
     43 H43         5.9605   -0.0172    3.3031 H         1 UNK         0.0300 
     44 H44         5.1794   -1.5565    1.7228 H         1 UNK         0.0600 
     45 H45         6.0564   -0.6818    0.4551 H         1 UNK         0.0600 
     46 H46         3.8254    3.1864    3.3979 H         1 UNK         0.0600 
     47 H47         4.7599    2.1254    4.4566 H         1 UNK         0.0600 
     48 H48         5.5838    3.1600    3.2852 H         1 UNK         0.0600 
     49 H49         1.5681    1.1804    1.0650 H         1 UNK         0.0600 
     50 H50         2.0157    2.3531    2.2806 H         1 UNK         0.0600 
     51 H51         3.1966    3.7572    0.5129 H         1 UNK         0.1150 
     52 H52         1.0982    2.2044   -1.0633 H         1 UNK         0.1150 
     53 H53         2.6708    4.8429   -1.6495 H         1 UNK         0.1150 
     54 H54         1.4334    4.8713   -3.7141 H         1 UNK         0.1150 
     55 H55         0.5689    3.3038   -3.2510 H         1 UNK         0.1150 
@<TRIPOS>BOND
     1    1    2 2    
     2    1    3 1    
     3    1    4 1    
     4    2    5 1    
     5    2   28 1    
     6    3    6 1    
     7    3    7 2    
     8    4   29 1    
     9    4   30 1    
    10    4   31 1    
    11    5    8 1    
    12    5    9 1    
    13    5   32 1    
    14    6   10 1    
    15    8    9 1    
    16    8   11 1    
    17    8   33 1    
    18    9   12 1    
    19    9   13 1    
    20   10   34 1    
    21   10   35 1    
    22   10   36 1    
    23   11   14 1    
    24   11   15 2    
    25   12   37 1    
    26   12   38 1    
    27   12   39 1    
    28   13   40 1    
    29   13   41 1    
    30   13   42 1    
    31   14   16 1    
    32   16   17 1    
    33   16   18 1    
    34   16   43 1    
    35   17   19 1    
    36   17   20 2    
    37   18   21 1    
    38   18   44 1    
    39   18   45 1    
    40   19   46 1    
    41   19   47 1    
    42   19   48 1    
    43   20   21 1    
    44   20   22 1    
    45   21   23 2    
    46   22   24 1    
    47   22   49 1    
    48   22   50 1    
    49   24   25 2    
    50   24   51 1    
    51   25   26 1    
    52   25   52 1    
    53   26   27 2    
    54   26   53 1    
    55   27   54 1    
    56   27   55 1    
@<TRIPOS>SUBSTRUCTURE
     1 UNK         1 GROUP             0       ****    0 ROOT    
