@<TRIPOS>MOLECULE
title: molecule 1
26   27    1
SMALL
USER_CHARGES


@<TRIPOS>ATOM
      1 N1          4.1272   -0.5367   -0.8537 N.pl3     1 UNK        -0.5800 
      2 C2          2.8800   -0.8140   -0.2786 C.ar      1 UNK         0.2000 
      3 N3          4.9422   -1.6072   -1.2585 N.pl3     1 UNK        -0.5800 
      4 C4          1.8353    0.1194   -0.4440 C.ar      1 UNK        -0.1150 
      5 C5          2.6451   -1.9881    0.4751 C.ar      1 UNK        -0.1150 
      6 C6          6.0902   -1.9146   -0.5157 C.ar      1 UNK         0.2000 
      7 C7          0.5688   -0.1191    0.1246 C.ar      1 UNK        -0.1150 
      8 C8          1.3786   -2.2260    1.0439 C.ar      1 UNK        -0.1150 
      9 C9          6.5877   -3.2339   -0.5566 C.ar      1 UNK        -0.1150 
     10 C10         6.7670   -0.9444    0.2603 C.ar      1 UNK        -0.1150 
     11 C11         0.3395   -1.2926    0.8677 C.ar      1 UNK        -0.1150 
     12 C12         7.7405   -3.5848    0.1728 C.ar      1 UNK        -0.1150 
     13 C13         7.9199   -1.2956    0.9895 C.ar      1 UNK        -0.1150 
     14 C14         8.4067   -2.6159    0.9470 C.ar      1 UNK        -0.1150 
     15 H15         4.2012    0.3161   -1.3907 H         1 UNK         0.3800 
     16 H16         4.4909   -2.3656   -1.7507 H         1 UNK         0.3800 
     17 H17         1.9999    1.0241   -1.0111 H         1 UNK         0.1150 
     18 H18         3.4322   -2.7116    0.6287 H         1 UNK         0.1150 
     19 H19        -0.2266    0.5993   -0.0089 H         1 UNK         0.1150 
     20 H20         1.2055   -3.1244    1.6178 H         1 UNK         0.1150 
     21 H21         6.0849   -3.9857   -1.1473 H         1 UNK         0.1150 
     22 H22         6.4115    0.0746    0.3023 H         1 UNK         0.1150 
     23 H23        -0.6313   -1.4752    1.3045 H         1 UNK         0.1150 
     24 H24         8.1138   -4.5977    0.1378 H         1 UNK         0.1150 
     25 H25         8.4314   -0.5506    1.5810 H         1 UNK         0.1150 
     26 H26         9.2909   -2.8846    1.5061 H         1 UNK         0.1150 
@<TRIPOS>BOND
     1    1    2 1    
     2    1    3 1    
     3    1   15 1    
     4    2    4 ar   
     5    2    5 ar   
     6    3    6 1    
     7    3   16 1    
     8    4    7 ar   
     9    4   17 1    
    10    5    8 ar   
    11    5   18 1    
    12    6    9 ar   
    13    6   10 ar   
    14    7   11 ar   
    15    7   19 1    
    16    8   11 ar   
    17    8   20 1    
    18    9   12 ar   
    19    9   21 1    
    20   10   13 ar   
    21   10   22 1    
    22   11   23 1    
    23   12   14 ar   
    24   12   24 1    
    25   13   14 ar   
    26   13   25 1    
    27   14   26 1    
@<TRIPOS>SUBSTRUCTURE
     1 UNK         1 GROUP             0       ****    0 ROOT    
