@<TRIPOS>MOLECULE
title: molecule 1
29   29    1
SMALL
USER_CHARGES


@<TRIPOS>ATOM
      1 S1          6.9826   -3.4134   -1.8434 S.2       1 UNK        -0.5895 
      2 P2          7.1885   -2.8233    0.0212 P.3       1 UNK         1.1541 
      3 O3          5.9261   -3.0917    1.0142 O.3       1 UNK        -0.2882 
      4 O4          7.4638   -1.2370    0.2564 O.3       1 UNK        -0.4611 
      5 O5          8.4106   -3.4892    0.8640 O.3       1 UNK        -0.4611 
      6 C6          4.6440   -2.6842    0.7662 C.ar      1 UNK         0.1000 
      7 C7          8.6017   -0.6059   -0.2979 C.3       1 UNK         0.0929 
      8 C8          8.4709   -4.8864    1.0763 C.3       1 UNK         0.0929 
      9 C9          3.6450   -3.6466    0.5294 C.ar      1 UNK        -0.1150 
     10 C10         4.3086   -1.3171    0.7615 C.ar      1 UNK        -0.1150 
     11 C11         2.3127   -3.2577    0.2716 C.ar      1 UNK        -0.1150 
     12 C12         2.9843   -0.9193    0.5031 C.ar      1 UNK        -0.1150 
     13 C13         1.9764   -1.8762    0.2468 C.ar      1 UNK         0.0900 
     14 C14         1.2746   -4.3453    0.0488 C.3       1 UNK        -0.0650 
     15 N15         0.6075   -1.4049   -0.0305 N.pl3     1 UNK         0.6500 
     16 O16        -0.0194   -1.9289   -0.9450 O.co2     1 UNK        -0.3700 
     17 O17         0.1759   -0.4838    0.6549 O.co2     1 UNK        -0.3700 
     18 H18         8.7140    0.3921    0.1252 H         1 UNK         0.0600 
     19 H19         9.5085   -1.1718   -0.0817 H         1 UNK         0.0600 
     20 H20         8.5013   -0.5074   -1.3790 H         1 UNK         0.0600 
     21 H21         9.2408   -5.1158    1.8127 H         1 UNK         0.0600 
     22 H22         7.5194   -5.2684    1.4479 H         1 UNK         0.0600 
     23 H23         8.7189   -5.4080    0.1516 H         1 UNK         0.0600 
     24 H24         3.9100   -4.6938    0.5465 H         1 UNK         0.1150 
     25 H25         5.0644   -0.5702    0.9541 H         1 UNK         0.1150 
     26 H26         2.7441    0.1340    0.4946 H         1 UNK         0.1150 
     27 H27         0.3709   -4.1441    0.6248 H         1 UNK         0.0600 
     28 H28         1.0096   -4.4073   -1.0069 H         1 UNK         0.0600 
     29 H29         1.6504   -5.3211    0.3578 H         1 UNK         0.0600 
@<TRIPOS>BOND
     1    1    2 2    
     2    2    3 1    
     3    2    4 1    
     4    2    5 1    
     5    3    6 1    
     6    4    7 1    
     7    5    8 1    
     8    6    9 ar   
     9    6   10 ar   
    10    7   18 1    
    11    7   19 1    
    12    7   20 1    
    13    8   21 1    
    14    8   22 1    
    15    8   23 1    
    16    9   11 ar   
    17    9   24 1    
    18   10   12 ar   
    19   10   25 1    
    20   11   13 ar   
    21   11   14 1    
    22   12   13 ar   
    23   12   26 1    
    24   13   15 1    
    25   14   27 1    
    26   14   28 1    
    27   14   29 1    
    28   15   16 2    
    29   15   17 1    
@<TRIPOS>SUBSTRUCTURE
     1 UNK         1 GROUP             0       ****    0 ROOT    
