@<TRIPOS>MOLECULE
title: molecule 1
10   9    1
SMALL
USER_CHARGES


@<TRIPOS>ATOM
      1 C1          0.0567   -0.9668    0.1069 C.3       1 UNK         0.0200 
      2 N2          1.5022   -1.1076    0.0977 N.3       1 UNK        -0.7800 
      3 C3          2.1200    0.2063    0.0648 C.3       1 UNK         0.0200 
      4 H4         -0.4122   -1.9507    0.1284 H         1 UNK         0.0600 
      5 H5         -0.2763   -0.4124    0.9852 H         1 UNK         0.0600 
      6 H6         -0.2896   -0.4458   -0.7865 H         1 UNK         0.0600 
      7 H7          1.8009   -1.6032    0.9261 H         1 UNK         0.3800 
      8 H8          3.2054    0.1063    0.0545 H         1 UNK         0.0600 
      9 H9          1.8218    0.7547   -0.8296 H         1 UNK         0.0600 
     10 H10         1.8410    0.7914    0.9420 H         1 UNK         0.0600 
@<TRIPOS>BOND
     1    1    2 1    
     2    1    4 1    
     3    1    5 1    
     4    1    6 1    
     5    2    3 1    
     6    2    7 1    
     7    3    8 1    
     8    3    9 1    
     9    3   10 1    
@<TRIPOS>SUBSTRUCTURE
     1 UNK         1 GROUP             0       ****    0 ROOT    
