@<TRIPOS>MOLECULE
title: molecule 1
32   31    1
SMALL
USER_CHARGES


@<TRIPOS>ATOM
      1 C1          9.7614   -0.6490    0.1026 C.3       1 UNK        -0.1200 
      2 C2          8.4872    0.2079    0.1024 C.3       1 UNK        -0.1200 
      3 C3         11.0396    0.1968    0.1000 C.3       1 UNK        -0.1800 
      4 C4          7.2065   -0.6394    0.1051 C.3       1 UNK        -0.1200 
      5 C5          5.9323    0.2177    0.1049 C.3       1 UNK        -0.1200 
      6 C6          4.6515   -0.6295    0.1075 C.3       1 UNK        -0.1200 
      7 C7          3.3773    0.2276    0.1073 C.3       1 UNK        -0.1200 
      8 C8          2.0965   -0.6197    0.1100 C.3       1 UNK        -0.1200 
      9 C9          0.8224    0.2372    0.1098 C.3       1 UNK        -0.1200 
     10 C10        -0.4558   -0.6086    0.1124 C.3       1 UNK        -0.1800 
     11 H11         9.7644   -1.3006    0.9772 H         1 UNK         0.0600 
     12 H12         9.7627   -1.3035   -0.7697 H         1 UNK         0.0600 
     13 H13         8.4908    0.8625    0.9749 H         1 UNK         0.0600 
     14 H14         8.4891    0.8596   -0.7723 H         1 UNK         0.0600 
     15 H15        11.9256   -0.4384    0.1002 H         1 UNK         0.0600 
     16 H16        11.0880    0.8347   -0.7829 H         1 UNK         0.0600 
     17 H17        11.0897    0.8377    0.9806 H         1 UNK         0.0600 
     18 H18         7.2031   -1.2940   -0.7674 H         1 UNK         0.0600 
     19 H19         7.2048   -1.2910    0.9798 H         1 UNK         0.0600 
     20 H20         5.9356    0.8723    0.9774 H         1 UNK         0.0600 
     21 H21         5.9340    0.8694   -0.7698 H         1 UNK         0.0600 
     22 H22         4.6482   -1.2841   -0.7650 H         1 UNK         0.0600 
     23 H23         4.6498   -1.2812    0.9822 H         1 UNK         0.0600 
     24 H24         3.3807    0.8822    0.9798 H         1 UNK         0.0600 
     25 H25         3.3790    0.8792   -0.7674 H         1 UNK         0.0600 
     26 H26         2.0930   -1.2743   -0.7625 H         1 UNK         0.0600 
     27 H27         2.0947   -1.2714    0.9847 H         1 UNK         0.0600 
     28 H28         0.8211    0.8917    0.9821 H         1 UNK         0.0600 
     29 H29         0.8194    0.8888   -0.7648 H         1 UNK         0.0600 
     30 H30        -1.3418    0.0266    0.1122 H         1 UNK         0.0600 
     31 H31        -0.5059   -1.2495   -0.7682 H         1 UNK         0.0600 
     32 H32        -0.5042   -1.2465    0.9953 H         1 UNK         0.0600 
@<TRIPOS>BOND
     1    1    2 1    
     2    1    3 1    
     3    1   11 1    
     4    1   12 1    
     5    2    4 1    
     6    2   13 1    
     7    2   14 1    
     8    3   15 1    
     9    3   16 1    
    10    3   17 1    
    11    4    5 1    
    12    4   18 1    
    13    4   19 1    
    14    5    6 1    
    15    5   20 1    
    16    5   21 1    
    17    6    7 1    
    18    6   22 1    
    19    6   23 1    
    20    7    8 1    
    21    7   24 1    
    22    7   25 1    
    23    8    9 1    
    24    8   26 1    
    25    8   27 1    
    26    9   10 1    
    27    9   28 1    
    28    9   29 1    
    29   10   30 1    
    30   10   31 1    
    31   10   32 1    
@<TRIPOS>SUBSTRUCTURE
     1 UNK         1 GROUP             0       ****    0 ROOT    
