@<TRIPOS>MOLECULE
title: molecule 1
52   53    1
SMALL
USER_CHARGES


@<TRIPOS>ATOM
      1 O1          4.0979   -4.7237    3.2528 O.2       1 UNK        -0.6661 
      2 P2          4.5747   -4.0395    2.0182 P.3       1 UNK         1.2307 
      3 O3          3.9942   -2.5379    1.7729 O.3       1 UNK        -0.2882 
      4 O4          4.2465   -4.7949    0.6124 O.3       1 UNK        -0.2882 
      5 O5          6.1826   -3.8157    1.9311 O.3       1 UNK        -0.4611 
      6 C6          4.1465   -1.8320    0.6104 C.ar      1 UNK         0.1000 
      7 C7          3.0058   -5.0056    0.0698 C.ar      1 UNK         0.1000 
      8 C8          7.0662   -4.9171    1.8404 C.3       1 UNK         0.1529 
      9 C9          3.0191   -1.5780   -0.1965 C.ar      1 UNK        -0.1150 
     10 C10         5.4123   -1.3514    0.2136 C.ar      1 UNK        -0.1150 
     11 C11         2.8865   -5.0167   -1.3345 C.ar      1 UNK        -0.1150 
     12 C12         1.8559   -5.2082    0.8662 C.ar      1 UNK        -0.1150 
     13 C13         8.1324   -4.6476    0.7599 C.3       1 UNK        -0.0600 
     14 C14         3.1575   -0.8651   -1.4031 C.ar      1 UNK        -0.1150 
     15 C15         5.5508   -0.6374   -0.9924 C.ar      1 UNK        -0.1150 
     16 C16         1.6318   -5.2170   -1.9416 C.ar      1 UNK        -0.1150 
     17 C17         0.6010   -5.4095    0.2590 C.ar      1 UNK        -0.1150 
     18 C18         7.4923   -4.5183   -0.6451 C.3       1 UNK        -0.1200 
     19 C19         9.2187   -5.7459    0.8321 C.3       1 UNK        -0.1200 
     20 C20         4.4241   -0.3962   -1.8022 C.ar      1 UNK        -0.1150 
     21 C21         0.4880   -5.4125   -1.1444 C.ar      1 UNK        -0.1150 
     22 C22         8.1400   -3.4454   -1.5336 C.3       1 UNK        -0.1800 
     23 C23        10.4417   -5.5193   -0.0711 C.3       1 UNK        -0.1200 
     24 C24        11.5619   -6.5367    0.1893 C.3       1 UNK        -0.1200 
     25 C25        12.7761   -6.3201   -0.7206 C.3       1 UNK        -0.1800 
     26 H26         7.5319   -5.0495    2.8175 H         1 UNK         0.0600 
     27 H27         6.5252   -5.8391    1.6201 H         1 UNK         0.0600 
     28 H28         2.0477   -1.9415    0.1055 H         1 UNK         0.1150 
     29 H29         6.2809   -1.5308    0.8296 H         1 UNK         0.1150 
     30 H30         3.7618   -4.8626   -1.9484 H         1 UNK         0.1150 
     31 H31         1.9218   -5.2124    1.9435 H         1 UNK         0.1150 
     32 H32         8.5983   -3.6954    1.0179 H         1 UNK         0.0600 
     33 H33         2.2924   -0.6792   -2.0223 H         1 UNK         0.1150 
     34 H34         6.5219   -0.2752   -1.2963 H         1 UNK         0.1150 
     35 H35         1.5472   -5.2198   -3.0183 H         1 UNK         0.1150 
     36 H36        -0.2756   -5.5622    0.8712 H         1 UNK         0.1150 
     37 H37         7.4966   -5.4827   -1.1541 H         1 UNK         0.0600 
     38 H38         6.4417   -4.2474   -0.5531 H         1 UNK         0.0600 
     39 H39         9.5698   -5.8159    1.8626 H         1 UNK         0.0600 
     40 H40         8.7759   -6.7161    0.6028 H         1 UNK         0.0600 
     41 H41         4.5309    0.1504   -2.7277 H         1 UNK         0.1150 
     42 H42        -0.4750   -5.5664   -1.6090 H         1 UNK         0.1150 
     43 H43         7.6228   -3.3770   -2.4908 H         1 UNK         0.0600 
     44 H44         8.0861   -2.4640   -1.0621 H         1 UNK         0.0600 
     45 H45         9.1876   -3.6532   -1.7425 H         1 UNK         0.0600 
     46 H46        10.1426   -5.5917   -1.1164 H         1 UNK         0.0600 
     47 H47        10.8270   -4.5102    0.0802 H         1 UNK         0.0600 
     48 H48        11.8796   -6.4748    1.2308 H         1 UNK         0.0600 
     49 H49        11.1795   -7.5476    0.0428 H         1 UNK         0.0600 
     50 H50        13.5534   -7.0556   -0.5128 H         1 UNK         0.0600 
     51 H51        12.5023   -6.4136   -1.7719 H         1 UNK         0.0600 
     52 H52        13.2074   -5.3296   -0.5727 H         1 UNK         0.0600 
@<TRIPOS>BOND
     1    1    2 2    
     2    2    3 1    
     3    2    4 1    
     4    2    5 1    
     5    3    6 1    
     6    4    7 1    
     7    5    8 1    
     8    6    9 ar   
     9    6   10 ar   
    10    7   11 ar   
    11    7   12 ar   
    12    8   13 1    
    13    8   26 1    
    14    8   27 1    
    15    9   14 ar   
    16    9   28 1    
    17   10   15 ar   
    18   10   29 1    
    19   11   16 ar   
    20   11   30 1    
    21   12   17 ar   
    22   12   31 1    
    23   13   18 1    
    24   13   19 1    
    25   13   32 1    
    26   14   20 ar   
    27   14   33 1    
    28   15   20 ar   
    29   15   34 1    
    30   16   21 ar   
    31   16   35 1    
    32   17   21 ar   
    33   17   36 1    
    34   18   22 1    
    35   18   37 1    
    36   18   38 1    
    37   19   23 1    
    38   19   39 1    
    39   19   40 1    
    40   20   41 1    
    41   21   42 1    
    42   22   43 1    
    43   22   44 1    
    44   22   45 1    
    45   23   24 1    
    46   23   46 1    
    47   23   47 1    
    48   24   25 1    
    49   24   48 1    
    50   24   49 1    
    51   25   50 1    
    52   25   51 1    
    53   25   52 1    
@<TRIPOS>SUBSTRUCTURE
     1 UNK         1 GROUP             0       ****    0 ROOT    
