@<TRIPOS>MOLECULE
title: molecule 1
44   43    1
SMALL
USER_CHARGES


@<TRIPOS>ATOM
      1 C1          8.8881   -6.3291    1.7060 C.3       1 UNK        -0.1800 
      2 C2          9.0342   -5.0111    0.9374 C.3       1 UNK        -0.1200 
      3 C3          7.7062   -4.2510    0.8133 C.3       1 UNK        -0.1200 
      4 C4          7.8564   -2.9297    0.0428 C.3       1 UNK         0.1529 
      5 O5          6.6096   -2.2966   -0.1887 O.3       1 UNK        -0.4611 
      6 P6          5.7699   -1.5721    1.0033 P.3       1 UNK         1.2307 
      7 O7          5.3400   -2.4444    2.1318 O.2       1 UNK        -0.6661 
      8 O8          6.7361   -0.3277    1.4206 O.3       1 UNK        -0.4611 
      9 O9          4.5666   -0.8368    0.1890 O.3       1 UNK        -0.4611 
     10 C10         6.8293    0.8723    0.6670 C.3       1 UNK         0.1529 
     11 C11         3.6862   -1.5439   -0.6698 C.3       1 UNK         0.1529 
     12 C12         7.3455    0.6484   -0.7647 C.3       1 UNK        -0.1200 
     13 C13         2.8959   -2.6490    0.0510 C.3       1 UNK        -0.1200 
     14 C14         7.5579    1.9650   -1.5245 C.3       1 UNK        -0.1200 
     15 C15         1.8414   -3.3014   -0.8541 C.3       1 UNK        -0.1200 
     16 C16         8.0695    1.7434   -2.9522 C.3       1 UNK        -0.1800 
     17 C17         1.0558   -4.4066   -0.1395 C.3       1 UNK        -0.1800 
     18 H18         9.8457   -6.8451    1.7781 H         1 UNK         0.0600 
     19 H19         8.5266   -6.1559    2.7201 H         1 UNK         0.0600 
     20 H20         8.1858   -6.9991    1.2092 H         1 UNK         0.0600 
     21 H21         9.7697   -4.3821    1.4404 H         1 UNK         0.0600 
     22 H22         9.4329   -5.2180   -0.0564 H         1 UNK         0.0600 
     23 H23         7.3153   -4.0602    1.8120 H         1 UNK         0.0600 
     24 H24         6.9730   -4.8800    0.3071 H         1 UNK         0.0600 
     25 H25         8.5173   -2.2481    0.5799 H         1 UNK         0.0600 
     26 H26         8.3181   -3.1144   -0.9274 H         1 UNK         0.0600 
     27 H27         5.8566    1.3652    0.6494 H         1 UNK         0.0600 
     28 H28         7.5046    1.5416    1.2005 H         1 UNK         0.0600 
     29 H29         2.9973   -0.8182   -1.1026 H         1 UNK         0.0600 
     30 H30         4.2568   -1.9649   -1.4984 H         1 UNK         0.0600 
     31 H31         8.2852    0.0965   -0.7257 H         1 UNK         0.0600 
     32 H32         6.6433    0.0298   -1.3233 H         1 UNK         0.0600 
     33 H33         3.5770   -3.4208    0.4096 H         1 UNK         0.0600 
     34 H34         2.4095   -2.2276    0.9314 H         1 UNK         0.0600 
     35 H35         6.6204    2.5210   -1.5616 H         1 UNK         0.0600 
     36 H36         8.2673    2.5914   -0.9824 H         1 UNK         0.0600 
     37 H37         1.1458   -2.5421   -1.2133 H         1 UNK         0.0600 
     38 H38         2.3258   -3.7192   -1.7374 H         1 UNK         0.0600 
     39 H39         8.2106    2.6943   -3.4664 H         1 UNK         0.0600 
     40 H40         9.0265    1.2207   -2.9511 H         1 UNK         0.0600 
     41 H41         7.3642    1.1512   -3.5359 H         1 UNK         0.0600 
     42 H42         0.3159   -4.8504   -0.8059 H         1 UNK         0.0600 
     43 H43         1.7177   -5.2036    0.2004 H         1 UNK         0.0600 
     44 H44         0.5277   -4.0151    0.7304 H         1 UNK         0.0600 
@<TRIPOS>BOND
     1    1    2 1    
     2    1   18 1    
     3    1   19 1    
     4    1   20 1    
     5    2    3 1    
     6    2   21 1    
     7    2   22 1    
     8    3    4 1    
     9    3   23 1    
    10    3   24 1    
    11    4    5 1    
    12    4   25 1    
    13    4   26 1    
    14    5    6 1    
    15    6    7 2    
    16    6    8 1    
    17    6    9 1    
    18    8   10 1    
    19    9   11 1    
    20   10   12 1    
    21   10   27 1    
    22   10   28 1    
    23   11   13 1    
    24   11   29 1    
    25   11   30 1    
    26   12   14 1    
    27   12   31 1    
    28   12   32 1    
    29   13   15 1    
    30   13   33 1    
    31   13   34 1    
    32   14   16 1    
    33   14   35 1    
    34   14   36 1    
    35   15   17 1    
    36   15   37 1    
    37   15   38 1    
    38   16   39 1    
    39   16   40 1    
    40   16   41 1    
    41   17   42 1    
    42   17   43 1    
    43   17   44 1    
@<TRIPOS>SUBSTRUCTURE
     1 UNK         1 GROUP             0       ****    0 ROOT    
