@<TRIPOS>MOLECULE
title: molecule 1
26   29    1
SMALL
USER_CHARGES


@<TRIPOS>ATOM
      1 C1          2.3706   -2.5508    0.1037 C.ar      1 UNK         0.0000 
      2 C2          3.6117   -1.8477    0.1073 C.ar      1 UNK         0.0000 
      3 C3          2.3567   -3.9743    0.0935 C.ar      1 UNK         0.0000 
      4 C4          1.1424   -1.8309    0.1104 C.ar      1 UNK         0.0000 
      5 C5          4.8398   -2.5677    0.1006 C.ar      1 UNK         0.0000 
      6 C6          3.6256   -0.4242    0.1176 C.ar      1 UNK         0.0000 
      7 C7          3.5822   -4.6642    0.0870 C.ar      1 UNK        -0.1150 
      8 C8          1.1202   -4.6515    0.0901 C.ar      1 UNK        -0.1150 
      9 C9          1.1807   -0.4251    0.1206 C.ar      1 UNK        -0.1150 
     10 C10        -0.0741   -2.5432    0.1068 C.ar      1 UNK        -0.1150 
     11 C11         6.0563   -1.8553    0.1042 C.ar      1 UNK        -0.1150 
     12 C12         4.8015   -3.9734    0.0905 C.ar      1 UNK        -0.1150 
     13 C13         4.8620    0.2530    0.1209 C.ar      1 UNK        -0.1150 
     14 C14         2.4001    0.2656    0.1240 C.ar      1 UNK        -0.1150 
     15 C15        -0.0912   -3.9453    0.0967 C.ar      1 UNK        -0.1150 
     16 C16         6.0735   -0.4532    0.1143 C.ar      1 UNK        -0.1150 
     17 H17         3.5897   -5.7444    0.0791 H         1 UNK         0.1150 
     18 H18         1.0997   -5.7316    0.0823 H         1 UNK         0.1150 
     19 H19         0.2580    0.1368    0.1257 H         1 UNK         0.1150 
     20 H20        -1.0111   -2.0055    0.1118 H         1 UNK         0.1150 
     21 H21         6.9933   -2.3930    0.0992 H         1 UNK         0.1150 
     22 H22         5.7242   -4.5353    0.0853 H         1 UNK         0.1150 
     23 H23         4.8825    1.3331    0.1287 H         1 UNK         0.1150 
     24 H24         2.3925    1.3459    0.1319 H         1 UNK         0.1150 
     25 H25        -1.0310   -4.4777    0.0940 H         1 UNK         0.1150 
     26 H26         7.0132    0.0792    0.1170 H         1 UNK         0.1150 
@<TRIPOS>BOND
     1    1    2 ar   
     2    1    3 ar   
     3    1    4 ar   
     4    2    5 ar   
     5    2    6 ar   
     6    3    7 ar   
     7    3    8 ar   
     8    4    9 ar   
     9    4   10 ar   
    10    5   11 ar   
    11    5   12 ar   
    12    6   13 ar   
    13    6   14 ar   
    14    7   12 ar   
    15    7   17 1    
    16    8   15 ar   
    17    8   18 1    
    18    9   14 ar   
    19    9   19 1    
    20   10   15 ar   
    21   10   20 1    
    22   11   16 ar   
    23   11   21 1    
    24   12   22 1    
    25   13   16 ar   
    26   13   23 1    
    27   14   24 1    
    28   15   25 1    
    29   16   26 1    
@<TRIPOS>SUBSTRUCTURE
     1 UNK         1 GROUP             0       ****    0 ROOT    
