@<TRIPOS>MOLECULE
title: molecule 1
24   24    1
SMALL
USER_CHARGES


@<TRIPOS>ATOM
      1 C1          2.2933   -3.3932   -0.0247 C.ar      1 UNK        -0.1150 
      2 C2          2.7272   -2.0518    0.2246 C.ar      1 UNK        -0.1150 
      3 C3          0.9049   -3.6536   -0.1390 C.ar      1 UNK        -0.1150 
      4 C4          3.2246   -4.5479   -0.2264 C.2       1 UNK         0.6250 
      5 C5          4.1560   -1.6643    0.4477 C.2       1 UNK         0.6250 
      6 C6          1.7556   -1.0243    0.3188 C.ar      1 UNK        -0.1150 
      7 C7         -0.0424   -2.6210   -0.0316 C.ar      1 UNK        -0.1150 
      8 O8          4.3019   -4.4719   -0.8203 O.2       1 UNK        -0.4300 
      9 O9          2.7438   -5.6900    0.3051 O.3       1 UNK        -0.3300 
     10 O10         4.9729   -2.3562    1.0585 O.2       1 UNK        -0.4300 
     11 O11         4.4473   -0.4604   -0.0850 O.3       1 UNK        -0.3300 
     12 C12         0.3840   -1.3032    0.1913 C.ar      1 UNK        -0.1150 
     13 C13         3.4984   -6.8857    0.2047 C.3       1 UNK         0.1600 
     14 C14         5.7589    0.0636    0.0342 C.3       1 UNK         0.1600 
     15 H15         0.5456   -4.6538   -0.3352 H         1 UNK         0.1150 
     16 H16         2.0500   -0.0031    0.5147 H         1 UNK         0.1150 
     17 H17        -1.0956   -2.8400   -0.1288 H         1 UNK         0.1150 
     18 H18        -0.3405   -0.5063    0.2733 H         1 UNK         0.1150 
     19 H19         2.9633   -7.7031    0.6879 H         1 UNK         0.0300 
     20 H20         3.6621   -7.1559   -0.8392 H         1 UNK         0.0300 
     21 H21         4.4670   -6.7764    0.6941 H         1 UNK         0.0300 
     22 H22         5.8145    1.0371   -0.4529 H         1 UNK         0.0300 
     23 H23         6.0331    0.1911    1.0822 H         1 UNK         0.0300 
     24 H24         6.4860   -0.5966   -0.4401 H         1 UNK         0.0300 
@<TRIPOS>BOND
     1    1    2 ar   
     2    1    3 ar   
     3    1    4 1    
     4    2    5 1    
     5    2    6 ar   
     6    3    7 ar   
     7    3   15 1    
     8    4    8 2    
     9    4    9 1    
    10    5   10 2    
    11    5   11 1    
    12    6   12 ar   
    13    6   16 1    
    14    7   12 ar   
    15    7   17 1    
    16    9   13 1    
    17   11   14 1    
    18   12   18 1    
    19   13   19 1    
    20   13   20 1    
    21   13   21 1    
    22   14   22 1    
    23   14   23 1    
    24   14   24 1    
@<TRIPOS>SUBSTRUCTURE
     1 UNK         1 GROUP             0       ****    0 ROOT    
