@<TRIPOS>MOLECULE
title: molecule 1
47   49    1
SMALL
USER_CHARGES


@<TRIPOS>ATOM
      1 N1          7.6265   -1.0438   -2.3320 N.1       1 UNK        -0.4300 
      2 C2          8.5699   -1.4366   -1.7898 C.1       1 UNK         0.3950 
      3 C3          9.7564   -1.9315   -1.1076 C.ar      1 UNK         0.0350 
      4 C4         10.1203   -3.2990   -1.1714 C.ar      1 UNK         0.0850 
      5 C5         10.5550   -1.0266   -0.3769 C.ar      1 UNK        -0.1150 
      6 C6         11.2900   -3.7389   -0.5155 C.ar      1 UNK        -0.1150 
      7 O7          9.3675   -4.2005   -1.8842 O.3       1 UNK        -0.1850 
      8 C8         11.7126   -1.4764    0.2862 C.ar      1 UNK        -0.1150 
      9 C9         12.0812   -2.8326    0.2153 C.ar      1 UNK        -0.1150 
     10 C10         8.3776   -4.8703   -1.2099 C.ar      1 UNK         0.7640 
     11 C11         7.0252   -4.6953   -1.5577 C.ar      1 UNK        -0.6890 
     12 N12         8.7554   -5.6862   -0.2000 N.ar      1 UNK        -0.8390 
     13 C13         6.0873   -5.3979   -0.7782 C.ar      1 UNK         0.7640 
     14 C14         7.7810   -6.3172    0.4576 C.ar      1 UNK         0.8740 
     15 N15         6.4707   -6.2189    0.2280 N.ar      1 UNK        -0.8390 
     16 O16         4.7406   -5.2151   -0.9889 O.3       1 UNK        -0.1850 
     17 C17         3.9107   -5.1118    0.1025 C.ar      1 UNK         0.0850 
     18 C18         3.9603   -3.9870    0.9667 C.ar      1 UNK         0.0000 
     19 C19         2.9883   -6.1490    0.3493 C.ar      1 UNK        -0.1150 
     20 C20         3.0921   -3.9354    2.0800 C.ar      1 UNK        -0.1150 
     21 C21         4.9074   -2.8794    0.7274 C.2       1 UNK         0.0000 
     22 C22         2.1250   -6.0846    1.4587 C.ar      1 UNK        -0.1150 
     23 C23         2.1788   -4.9781    2.3258 C.ar      1 UNK        -0.1150 
     24 C24         4.7669   -2.0216   -0.3032 C.2       1 UNK        -0.0300 
     25 C25         6.0611   -2.8048    1.6638 C.2       1 UNK         0.5100 
     26 O26         3.7213   -2.1126   -1.1806 O.3       1 UNK        -0.2850 
     27 O27         6.2345   -3.5938    2.5952 O.2       1 UNK        -0.4300 
     28 O28         6.9122   -1.7985    1.3748 O.3       1 UNK        -0.3300 
     29 C29         3.7700   -1.1638   -2.2324 C.3       1 UNK         0.1100 
     30 C30         8.0826   -1.6218    2.1545 C.3       1 UNK         0.1600 
     31 H31        10.2839    0.0182   -0.3204 H         1 UNK         0.1150 
     32 H32        11.5768   -4.7790   -0.5682 H         1 UNK         0.1150 
     33 H33        12.3199   -0.7801    0.8457 H         1 UNK         0.1150 
     34 H34        12.9715   -3.1780    0.7201 H         1 UNK         0.1150 
     35 H35         6.7204   -4.0304   -2.3522 H         1 UNK         0.1970 
     36 H36         8.0838   -6.9694    1.2631 H         1 UNK        -0.0320 
     37 H37         2.9487   -7.0014   -0.3127 H         1 UNK         0.1150 
     38 H38         3.1235   -3.0885    2.7499 H         1 UNK         0.1150 
     39 H39         1.4236   -6.8844    1.6452 H         1 UNK         0.1150 
     40 H40         1.5185   -4.9276    3.1790 H         1 UNK         0.1150 
     41 H41         5.4450   -1.2087   -0.5255 H         1 UNK         0.1150 
     42 H42         2.9040   -1.2936   -2.8813 H         1 UNK         0.0300 
     43 H43         3.7509   -0.1431   -1.8474 H         1 UNK         0.0300 
     44 H44         4.6666   -1.2952   -2.8400 H         1 UNK         0.0300 
     45 H45         8.6231   -0.7385    1.8150 H         1 UNK         0.0300 
     46 H46         7.8347   -1.4842    3.2077 H         1 UNK         0.0300 
     47 H47         8.7442   -2.4837    2.0589 H         1 UNK         0.0300 
@<TRIPOS>BOND
     1    1    2 3    
     2    2    3 1    
     3    3    4 ar   
     4    3    5 ar   
     5    4    6 ar   
     6    4    7 1    
     7    5    8 ar   
     8    5   31 1    
     9    6    9 ar   
    10    6   32 1    
    11    7   10 1    
    12    8    9 ar   
    13    8   33 1    
    14    9   34 1    
    15   10   11 ar   
    16   10   12 ar   
    17   11   13 ar   
    18   11   35 1    
    19   12   14 ar   
    20   13   15 ar   
    21   13   16 1    
    22   14   15 ar   
    23   14   36 1    
    24   16   17 1    
    25   17   18 ar   
    26   17   19 ar   
    27   18   20 ar   
    28   18   21 1    
    29   19   22 ar   
    30   19   37 1    
    31   20   23 ar   
    32   20   38 1    
    33   21   24 2    
    34   21   25 1    
    35   22   23 ar   
    36   22   39 1    
    37   23   40 1    
    38   24   26 1    
    39   24   41 1    
    40   25   27 2    
    41   25   28 1    
    42   26   29 1    
    43   28   30 1    
    44   29   42 1    
    45   29   43 1    
    46   29   44 1    
    47   30   45 1    
    48   30   46 1    
    49   30   47 1    
@<TRIPOS>SUBSTRUCTURE
     1 UNK         1 GROUP             0       ****    0 ROOT    
