@<TRIPOS>MOLECULE
title: molecule 1
21   23    1
SMALL
USER_CHARGES


@<TRIPOS>ATOM
      1 C1         -1.1529    0.8142    0.0935 C.ar      1 UNK        -0.0401 
      2 C2         -0.6215   -0.5168    0.0981 C.ar      1 UNK         0.0237 
      3 S3          0.1130    2.0379    0.0931 S.3       1 UNK         0.0328 
      4 C4         -2.5417    1.0480    0.0898 C.ar      1 UNK        -0.1150 
      5 C5          0.8418   -0.5184    0.1012 C.ar      1 UNK         0.0237 
      6 C6         -1.5552   -1.5818    0.0988 C.ar      1 UNK        -0.1150 
      7 C7          1.3762    0.8113    0.0990 C.ar      1 UNK        -0.0401 
      8 C8         -3.4389   -0.0339    0.0907 C.ar      1 UNK        -0.1150 
      9 C9          1.7730   -1.5856    0.1060 C.ar      1 UNK        -0.1150 
     10 C10        -2.9440   -1.3495    0.0952 C.ar      1 UNK        -0.1150 
     11 C11         2.7655    1.0421    0.1014 C.ar      1 UNK        -0.1150 
     12 C12         3.1624   -1.3564    0.1085 C.ar      1 UNK        -0.1150 
     13 C13         3.6603   -0.0419    0.1061 C.ar      1 UNK        -0.1150 
     14 H14        -2.9184    2.0603    0.0864 H         1 UNK         0.1150 
     15 H15        -1.1934   -2.5994    0.1022 H         1 UNK         0.1150 
     16 H16        -4.5041    0.1449    0.0879 H         1 UNK         0.1150 
     17 H17         1.4090   -2.6023    0.1079 H         1 UNK         0.1150 
     18 H18        -3.6301   -2.1837    0.0958 H         1 UNK         0.1150 
     19 H19         3.1444    2.0535    0.0996 H         1 UNK         0.1150 
     20 H20         3.8467   -2.1920    0.1121 H         1 UNK         0.1150 
     21 H21         4.7259    0.1346    0.1080 H         1 UNK         0.1150 
@<TRIPOS>BOND
     1    1    2 ar   
     2    1    3 1    
     3    1    4 ar   
     4    2    5 1    
     5    2    6 ar   
     6    3    7 1    
     7    4    8 ar   
     8    4   14 1    
     9    5    7 ar   
    10    5    9 ar   
    11    6   10 ar   
    12    6   15 1    
    13    7   11 ar   
    14    8   10 ar   
    15    8   16 1    
    16    9   12 ar   
    17    9   17 1    
    18   10   18 1    
    19   11   13 ar   
    20   11   19 1    
    21   12   13 ar   
    22   12   20 1    
    23   13   21 1    
@<TRIPOS>SUBSTRUCTURE
     1 UNK         1 GROUP             0       ****    0 ROOT    
