@<TRIPOS>MOLECULE
title: molecule 1
77   80    1
SMALL
USER_CHARGES


@<TRIPOS>ATOM
      1 C1         -0.3941    1.3501    0.7864 C.3       1 UNK         0.2050 
      2 O2         -0.9905    0.0690    0.7393 O.3       1 UNK        -0.6830 
      3 C3          1.1425    1.2327    0.7968 C.3       1 UNK         0.2050 
      4 C4         -0.9196    2.1522    1.9944 C.3       1 UNK        -0.1200 
      5 O5          1.5912    0.4628    1.8984 O.3       1 UNK        -0.6830 
      6 C6          1.7796    2.6288    0.8830 C.3       1 UNK        -0.1200 
      7 C7         -0.2893    3.5682    2.1400 C.3       1 UNK         0.0000 
      8 C8          1.2625    3.4255    2.1057 C.3       1 UNK        -0.0600 
      9 C9         -0.6904    4.0957    3.5446 C.3       1 UNK        -0.1800 
     10 C10        -0.7772    4.5477    1.0057 C.3       1 UNK        -0.0600 
     11 C11         1.9439    4.7958    2.1769 C.2       1 UNK         0.4700 
     12 C12         0.1624    5.7548    0.7862 C.2       1 UNK         0.0000 
     13 C13        -2.2775    4.9651    1.1365 C.3       1 UNK        -0.1200 
     14 C14         1.3777    5.8753    1.3623 C.2       1 UNK        -0.1150 
     15 O15         2.9429    4.9439    2.8776 O.2       1 UNK        -0.4700 
     16 C16        -0.3830    6.7790   -0.2079 C.3       1 UNK         0.2650 
     17 C17        -2.7449    6.0779    0.1715 C.3       1 UNK        -0.1200 
     18 C18        -1.7890    7.2980    0.1992 C.3       1 UNK         0.0000 
     19 C19         0.4120    8.0680   -0.4564 C.3       1 UNK        -0.1200 
     20 O20        -0.4169    6.1369   -1.4776 O.3       1 UNK        -0.6830 
     21 C21        -2.0222    8.4132   -0.8778 C.3       1 UNK        -0.0600 
     22 C22        -1.7834    7.9055    1.6309 C.3       1 UNK        -0.1800 
     23 C23        -0.6064    9.0176   -1.1159 C.3       1 UNK        -0.1200 
     24 C24        -3.1974    9.4612   -0.7688 C.3       1 UNK         0.2650 
     25 C25        -4.6201    8.8133   -0.7085 C.3       1 UNK         0.2050 
     26 O26        -3.1341   10.2136   -1.9690 O.3       1 UNK        -0.6830 
     27 C27        -3.0341   10.5119    0.3605 C.3       1 UNK        -0.1800 
     28 C28        -5.8118    9.7908   -0.8623 C.3       1 UNK        -0.1200 
     29 O29        -4.7545    7.8092   -1.6988 O.3       1 UNK        -0.6830 
     30 C30        -7.1808    9.1394   -0.5795 C.3       1 UNK        -0.1200 
     31 C31        -8.3831   10.0883   -0.7677 C.3       1 UNK        -0.0600 
     32 C32        -9.7031    9.3022   -0.7406 C.3       1 UNK        -0.1800 
     33 C33        -8.4151   11.2182    0.2757 C.3       1 UNK        -0.1800 
     34 H34        -0.6953    1.8466   -0.1352 H         1 UNK         0.0600 
     35 H35        -1.9284    0.1742    0.6971 H         1 UNK         0.4180 
     36 H36         1.4774    0.7351   -0.1142 H         1 UNK         0.0600 
     37 H37        -0.7118    1.5780    2.8990 H         1 UNK         0.0600 
     38 H38        -2.0058    2.2230    1.9434 H         1 UNK         0.0600 
     39 H39         2.5285    0.3632    1.8349 H         1 UNK         0.4180 
     40 H40         1.5665    3.1734   -0.0379 H         1 UNK         0.0600 
     41 H41         2.8657    2.5346    0.9282 H         1 UNK         0.0600 
     42 H42         1.5698    2.8793    2.9984 H         1 UNK         0.0600 
     43 H43        -0.4427    5.1490    3.6785 H         1 UNK         0.0600 
     44 H44        -1.7579    3.9838    3.7342 H         1 UNK         0.0600 
     45 H45        -0.1834    3.5411    4.3350 H         1 UNK         0.0600 
     46 H46        -0.7078    4.0170    0.0584 H         1 UNK         0.0600 
     47 H47        -2.4948    5.3125    2.1437 H         1 UNK         0.0600 
     48 H48        -2.9147    4.0931    0.9920 H         1 UNK         0.0600 
     49 H49         2.0096    6.7298    1.1758 H         1 UNK         0.1150 
     50 H50        -3.7543    6.3677    0.4544 H         1 UNK         0.0600 
     51 H51        -2.8315    5.6728   -0.8371 H         1 UNK         0.0600 
     52 H52         1.3017    7.9157   -1.0695 H         1 UNK         0.0600 
     53 H53         0.7439    8.5054    0.4857 H         1 UNK         0.0600 
     54 H54        -0.8046    6.7322   -2.1008 H         1 UNK         0.4180 
     55 H55        -2.2343    7.8700   -1.7997 H         1 UNK         0.0600 
     56 H56        -1.2374    8.8467    1.6814 H         1 UNK         0.0600 
     57 H57        -2.7986    8.0891    1.9800 H         1 UNK         0.0600 
     58 H58        -1.3250    7.2515    2.3710 H         1 UNK         0.0600 
     59 H59        -0.4168    9.0962   -2.1872 H         1 UNK         0.0600 
     60 H60        -0.4806   10.0197   -0.7133 H         1 UNK         0.0600 
     61 H61        -4.7237    8.3297    0.2618 H         1 UNK         0.0600 
     62 H62        -3.8738   10.8005   -1.9943 H         1 UNK         0.4180 
     63 H63        -3.3303   10.1215    1.3317 H         1 UNK         0.0600 
     64 H64        -3.6564   11.3898    0.1875 H         1 UNK         0.0600 
     65 H65        -2.0190   10.8894    0.4565 H         1 UNK         0.0600 
     66 H66        -5.6890   10.6219   -0.1719 H         1 UNK         0.0600 
     67 H67        -5.8162   10.2225   -1.8639 H         1 UNK         0.0600 
     68 H68        -5.5997    7.3991   -1.5988 H         1 UNK         0.4180 
     69 H69        -7.3092    8.2878   -1.2482 H         1 UNK         0.0600 
     70 H70        -7.1919    8.7308    0.4318 H         1 UNK         0.0600 
     71 H71        -8.3021   10.5460   -1.7546 H         1 UNK         0.0600 
     72 H72       -10.5563    9.9587   -0.9141 H         1 UNK         0.0600 
     73 H73        -9.7214    8.5335   -1.5137 H         1 UNK         0.0600 
     74 H74        -9.8520    8.8105    0.2213 H         1 UNK         0.0600 
     75 H75        -9.2951   11.8481    0.1423 H         1 UNK         0.0600 
     76 H76        -8.4446   10.8202    1.2905 H         1 UNK         0.0600 
     77 H77        -7.5447   11.8686    0.1962 H         1 UNK         0.0600 
@<TRIPOS>BOND
     1    1    2 1    
     2    1    3 1    
     3    1    4 1    
     4    1   34 1    
     5    2   35 1    
     6    3    5 1    
     7    3    6 1    
     8    3   36 1    
     9    4    7 1    
    10    4   37 1    
    11    4   38 1    
    12    5   39 1    
    13    6    8 1    
    14    6   40 1    
    15    6   41 1    
    16    7    9 1    
    17    7    8 1    
    18    7   10 1    
    19    8   11 1    
    20    8   42 1    
    21    9   43 1    
    22    9   44 1    
    23    9   45 1    
    24   10   12 1    
    25   10   13 1    
    26   10   46 1    
    27   11   14 1    
    28   11   15 2    
    29   12   14 2    
    30   12   16 1    
    31   13   17 1    
    32   13   47 1    
    33   13   48 1    
    34   14   49 1    
    35   16   18 1    
    36   16   19 1    
    37   16   20 1    
    38   17   18 1    
    39   17   50 1    
    40   17   51 1    
    41   18   21 1    
    42   18   22 1    
    43   19   23 1    
    44   19   52 1    
    45   19   53 1    
    46   20   54 1    
    47   21   23 1    
    48   21   24 1    
    49   21   55 1    
    50   22   56 1    
    51   22   57 1    
    52   22   58 1    
    53   23   59 1    
    54   23   60 1    
    55   24   25 1    
    56   24   26 1    
    57   24   27 1    
    58   25   28 1    
    59   25   29 1    
    60   25   61 1    
    61   26   62 1    
    62   27   63 1    
    63   27   64 1    
    64   27   65 1    
    65   28   30 1    
    66   28   66 1    
    67   28   67 1    
    68   29   68 1    
    69   30   31 1    
    70   30   69 1    
    71   30   70 1    
    72   31   32 1    
    73   31   33 1    
    74   31   71 1    
    75   32   72 1    
    76   32   73 1    
    77   32   74 1    
    78   33   75 1    
    79   33   76 1    
    80   33   77 1    
@<TRIPOS>SUBSTRUCTURE
     1 UNK         1 GROUP             0       ****    0 ROOT    
