@<TRIPOS>MOLECULE
title: molecule 1
19   20    1
SMALL
USER_CHARGES


@<TRIPOS>ATOM
      1 C1          2.4076   -0.4965    0.0935 C.ar      1 UNK         0.0000 
      2 C2          2.4175   -1.9143    0.0921 C.ar      1 UNK         0.0000 
      3 C3          1.1792    0.1965    0.0808 C.ar      1 UNK        -0.1150 
      4 C4          3.6258    0.2142    0.1077 C.ar      1 UNK        -0.1150 
      5 C5          1.1991   -2.6246    0.0779 C.ar      1 UNK        -0.1150 
      6 C6          3.6456   -2.6072    0.1048 C.ar      1 UNK        -0.1150 
      7 C7         -0.0344   -0.5185    0.0667 C.ar      1 UNK        -0.1150 
      8 C8          4.8501   -0.4837    0.1203 C.ar      1 UNK         0.1500 
      9 C9         -0.0244   -1.9268    0.0653 C.ar      1 UNK        -0.1150 
     10 C10         4.8591   -1.8924    0.1188 C.ar      1 UNK        -0.1150 
     11 O11         6.0293    0.2026    0.1340 O.3       1 UNK        -0.5850 
     12 H12         1.1615    1.2767    0.0818 H         1 UNK         0.1150 
     13 H13         3.6215    1.2947    0.1088 H         1 UNK         0.1150 
     14 H14         1.1971   -3.7049    0.0767 H         1 UNK         0.1150 
     15 H15         3.6631   -3.6874    0.1038 H         1 UNK         0.1150 
     16 H16        -0.9739    0.0141    0.0570 H         1 UNK         0.1150 
     17 H17        -0.9563   -2.4727    0.0545 H         1 UNK         0.1150 
     18 H18         5.7975   -2.4273    0.1285 H         1 UNK         0.1150 
     19 H19         5.9147    1.1405    0.1338 H         1 UNK         0.4350 
@<TRIPOS>BOND
     1    1    2 ar   
     2    1    3 ar   
     3    1    4 ar   
     4    2    5 ar   
     5    2    6 ar   
     6    3    7 ar   
     7    3   12 1    
     8    4    8 ar   
     9    4   13 1    
    10    5    9 ar   
    11    5   14 1    
    12    6   10 ar   
    13    6   15 1    
    14    7    9 ar   
    15    7   16 1    
    16    8   10 ar   
    17    8   11 1    
    18    9   17 1    
    19   10   18 1    
    20   11   19 1    
@<TRIPOS>SUBSTRUCTURE
     1 UNK         1 GROUP             0       ****    0 ROOT    
