@<TRIPOS>MOLECULE
title: molecule 1
24   23    1
SMALL
USER_CHARGES


@<TRIPOS>ATOM
      1 S1          2.7516   -3.6261    0.7766 S.2       1 UNK        -0.4762 
      2 C2          1.9937   -2.3979   -0.0765 C.2       1 UNK         0.6062 
      3 N3          0.6762   -2.0506    0.0882 N.pl3     1 UNK        -0.2625 
      4 S4          2.8592   -1.4396   -1.2982 S.3       1 UNK        -0.0075 
      5 C5         -0.2068   -2.7321    1.0438 C.3       1 UNK        -0.1100 
      6 C6          0.0430   -0.9651   -0.6690 C.3       1 UNK        -0.1100 
      7 S7          4.8522   -1.9738   -1.2913 S.3       1 UNK        -0.0075 
      8 C8          5.7107   -1.0102   -0.0689 C.2       1 UNK         0.6062 
      9 S9          4.9479    0.2216    0.7748 S.2       1 UNK        -0.4762 
     10 N10         7.0273   -1.3568    0.1049 N.pl3     1 UNK        -0.2625 
     11 C11         7.9047   -0.6712    1.0627 C.3       1 UNK        -0.1100 
     12 C12         7.6648   -2.4455   -0.6441 C.3       1 UNK        -0.1100 
     13 H13        -1.2192   -2.3285    1.0363 H         1 UNK         0.0600 
     14 H14        -0.2833   -3.7946    0.8091 H         1 UNK         0.0600 
     15 H15         0.1731   -2.6290    2.0610 H         1 UNK         0.0600 
     16 H16        -1.0030   -0.8249   -0.3967 H         1 UNK         0.0600 
     17 H17         0.5501   -0.0171   -0.4845 H         1 UNK         0.0600 
     18 H18         0.0694   -1.1728   -1.7395 H         1 UNK         0.0600 
     19 H19         8.9171   -1.0748    1.0627 H         1 UNK         0.0600 
     20 H20         7.9825    0.3902    0.8239 H         1 UNK         0.0600 
     21 H21         7.5189   -0.7700    2.0781 H         1 UNK         0.0600 
     22 H22         8.7092   -2.5844   -0.3652 H         1 UNK         0.0600 
     23 H23         7.1567   -3.3927   -0.4584 H         1 UNK         0.0600 
     24 H24         7.6445   -2.2423   -1.7155 H         1 UNK         0.0600 
@<TRIPOS>BOND
     1    1    2 2    
     2    2    3 1    
     3    2    4 1    
     4    3    5 1    
     5    3    6 1    
     6    4    7 1    
     7    5   13 1    
     8    5   14 1    
     9    5   15 1    
    10    6   16 1    
    11    6   17 1    
    12    6   18 1    
    13    7    8 1    
    14    8    9 2    
    15    8   10 1    
    16   10   11 1    
    17   10   12 1    
    18   11   19 1    
    19   11   20 1    
    20   11   21 1    
    21   12   22 1    
    22   12   23 1    
    23   12   24 1    
@<TRIPOS>SUBSTRUCTURE
     1 UNK         1 GROUP             0       ****    0 ROOT    
