@<TRIPOS>MOLECULE
title: molecule 1
26   26    1
SMALL
USER_CHARGES


@<TRIPOS>ATOM
      1 C1          1.3683   -1.0425    0.1082 C.2       1 UNK         0.0000 
      2 C2          2.5108   -1.7121   -0.1369 C.2       1 UNK        -0.1150 
      3 C3          0.0516   -1.7580    0.3784 C.3       1 UNK        -0.1200 
      4 C4          1.3124    0.4710    0.1558 C.3       1 UNK        -0.1800 
      5 C5          2.6203   -3.2266   -0.1650 C.3       1 UNK        -0.1200 
      6 C6          0.0937   -3.2530    0.0109 C.3       1 UNK        -0.1200 
      7 C7          1.4006   -3.9120    0.4866 C.3       1 UNK        -0.0600 
      8 C8          1.4048   -5.4274    0.2987 C.2       1 UNK         0.0000 
      9 C9          1.5509   -6.2640    1.3404 C.2       1 UNK        -0.2300 
     10 C10         1.2317   -5.9581   -1.1153 C.3       1 UNK        -0.1800 
     11 H11         3.4214   -1.1666   -0.3375 H         1 UNK         0.1150 
     12 H12        -0.7497   -1.2698   -0.1773 H         1 UNK         0.0600 
     13 H13        -0.1830   -1.6412    1.4369 H         1 UNK         0.0600 
     14 H14         0.9757    0.8053    1.1374 H         1 UNK         0.0600 
     15 H15         2.2904    0.9132   -0.0370 H         1 UNK         0.0600 
     16 H16         0.6159    0.8479   -0.5934 H         1 UNK         0.0600 
     17 H17         3.5326   -3.5262    0.3517 H         1 UNK         0.0600 
     18 H18         2.7339   -3.5220   -1.2074 H         1 UNK         0.0600 
     19 H19         0.0053   -3.3520   -1.0716 H         1 UNK         0.0600 
     20 H20        -0.7707   -3.7607    0.4405 H         1 UNK         0.0600 
     21 H21         1.4694   -3.7254    1.5600 H         1 UNK         0.0600 
     22 H22         1.5513   -7.3355    1.2036 H         1 UNK         0.1150 
     23 H23         1.6727   -5.8931    2.3476 H         1 UNK         0.1150 
     24 H24         1.2487   -7.0483   -1.1306 H         1 UNK         0.0600 
     25 H25         0.2784   -5.6392   -1.5360 H         1 UNK         0.0600 
     26 H26         2.0315   -5.6088   -1.7671 H         1 UNK         0.0600 
@<TRIPOS>BOND
     1    1    2 2    
     2    1    3 1    
     3    1    4 1    
     4    2    5 1    
     5    2   11 1    
     6    3    6 1    
     7    3   12 1    
     8    3   13 1    
     9    4   14 1    
    10    4   15 1    
    11    4   16 1    
    12    5    7 1    
    13    5   17 1    
    14    5   18 1    
    15    6    7 1    
    16    6   19 1    
    17    6   20 1    
    18    7    8 1    
    19    7   21 1    
    20    8    9 2    
    21    8   10 1    
    22    9   22 1    
    23    9   23 1    
    24   10   24 1    
    25   10   25 1    
    26   10   26 1    
@<TRIPOS>SUBSTRUCTURE
     1 UNK         1 GROUP             0       ****    0 ROOT    
