@<TRIPOS>MOLECULE
title: molecule 1
27   28    1
SMALL
USER_CHARGES


@<TRIPOS>ATOM
      1 N1          7.2085   -1.7180   -0.2540 N.pl3     1 UNK        -0.6040 
      2 C2          5.9744   -2.2838    0.0125 C.2       1 UNK         0.3090 
      3 C3          7.4482   -0.5202    0.5222 C.3       1 UNK         0.0990 
      4 N4          5.3560   -1.4946    0.9696 N.pl3     1 UNK        -0.4130 
      5 N5          5.4383   -3.3492   -0.5017 N.2       1 UNK        -0.3590 
      6 C6          6.1995   -0.3934    1.3957 C.3       1 UNK         0.0990 
      7 C7          4.0470   -1.7087    1.5743 C.3       1 UNK         0.2140 
      8 N8          6.0692   -4.1375   -1.4722 N.pl3     1 UNK         0.7400 
      9 C9          2.8708   -1.4573    0.6458 C.ar      1 UNK        -0.4070 
     10 O10         7.1862   -3.8758   -1.9156 O.co2     1 UNK        -0.3700 
     11 O11         5.4554   -5.1186   -1.8737 O.co2     1 UNK        -0.3700 
     12 C12         1.7924   -2.3642    0.5954 C.ar      1 UNK         0.4730 
     13 C13         2.8172   -0.3170   -0.1820 C.ar      1 UNK         0.2270 
     14 N14         0.7191   -2.1979   -0.2062 N.ar      1 UNK        -0.6780 
     15 C15         1.7009   -0.1387   -1.0206 C.ar      1 UNK        -0.4470 
     16 C16         0.6757   -1.1061   -1.0000 C.ar      1 UNK         0.6650 
     17 Cl17       -0.6938   -0.8915   -2.0266 Cl        1 UNK        -0.1800 
     18 H18         7.8996   -2.0551   -0.9103 H         1 UNK         0.4100 
     19 H19         7.5631    0.3386   -0.1398 H         1 UNK         0.0600 
     20 H20         8.3528   -0.6247    1.1218 H         1 UNK         0.0600 
     21 H21         5.6968    0.5619    1.2423 H         1 UNK         0.0600 
     22 H22         6.4431   -0.4937    2.4539 H         1 UNK         0.0600 
     23 H23         4.0005   -2.7316    1.9504 H         1 UNK         0.0600 
     24 H24         3.9411   -1.0580    2.4430 H         1 UNK         0.0600 
     25 H25         1.7893   -3.2500    1.2133 H         1 UNK         0.0120 
     26 H26         3.6164    0.4095   -0.1784 H         1 UNK         0.0650 
     27 H27         1.6326    0.7234   -1.6675 H         1 UNK         0.1550 
@<TRIPOS>BOND
     1    1    2 1    
     2    1    3 1    
     3    1   18 1    
     4    2    4 1    
     5    2    5 2    
     6    3    6 1    
     7    3   19 1    
     8    3   20 1    
     9    4    6 1    
    10    4    7 1    
    11    5    8 1    
    12    6   21 1    
    13    6   22 1    
    14    7    9 1    
    15    7   23 1    
    16    7   24 1    
    17    8   10 1    
    18    8   11 2    
    19    9   12 ar   
    20    9   13 ar   
    21   12   14 ar   
    22   12   25 1    
    23   13   15 ar   
    24   13   26 1    
    25   14   16 ar   
    26   15   16 ar   
    27   15   27 1    
    28   16   17 1    
@<TRIPOS>SUBSTRUCTURE
     1 UNK         1 GROUP             0       ****    0 ROOT    
