@<TRIPOS>MOLECULE
title: molecule 1
22   21    1
SMALL
USER_CHARGES


@<TRIPOS>ATOM
      1 O1         -0.9187   -4.9238   -0.0900 O.3       1 UNK        -0.5300 
      2 C2          0.1511   -4.2535    0.4237 C.2       1 UNK         0.5200 
      3 O3          0.0795   -3.3547    1.2604 O.2       1 UNK        -0.4400 
      4 C4          1.4662   -4.7871   -0.1657 C.3       1 UNK         0.0900 
      5 N5          2.6325   -3.9393    0.1094 N.3       1 UNK        -0.6300 
      6 C6          3.8399   -4.7192   -0.2074 C.3       1 UNK         0.0900 
      7 C7          2.5531   -2.6460   -0.5950 C.3       1 UNK         0.0900 
      8 C8          5.1636   -4.0358    0.1551 C.2       1 UNK         0.5200 
      9 C9          3.0695   -1.4678    0.2424 C.2       1 UNK         0.5200 
     10 O10         5.6855   -4.1281    1.2635 O.2       1 UNK        -0.4400 
     11 O11         5.6738   -3.3267   -0.8925 O.3       1 UNK        -0.5300 
     12 O12         3.3173   -1.5289    1.4455 O.2       1 UNK        -0.4400 
     13 O13         3.2003   -0.3474   -0.5224 O.3       1 UNK        -0.5300 
     14 H14        -1.7364   -4.6149    0.2684 H         1 UNK         0.4500 
     15 H15         1.6207   -5.7757    0.2686 H         1 UNK         0.0600 
     16 H16         1.3553   -4.9269   -1.2422 H         1 UNK         0.0600 
     17 H17         3.8112   -5.6643    0.3365 H         1 UNK         0.0600 
     18 H18         3.8473   -4.9713   -1.2691 H         1 UNK         0.0600 
     19 H19         3.0862   -2.6962   -1.5454 H         1 UNK         0.0600 
     20 H20         1.5237   -2.3986   -0.8528 H         1 UNK         0.0600 
     21 H21         6.4879   -2.9026   -0.6697 H         1 UNK         0.4500 
     22 H22         3.5098    0.3900   -0.0197 H         1 UNK         0.4500 
@<TRIPOS>BOND
     1    1    2 1    
     2    1   14 1    
     3    2    3 2    
     4    2    4 1    
     5    4    5 1    
     6    4   15 1    
     7    4   16 1    
     8    5    6 1    
     9    5    7 1    
    10    6    8 1    
    11    6   17 1    
    12    6   18 1    
    13    7    9 1    
    14    7   19 1    
    15    7   20 1    
    16    8   10 2    
    17    8   11 1    
    18    9   12 2    
    19    9   13 1    
    20   11   21 1    
    21   13   22 1    
@<TRIPOS>SUBSTRUCTURE
     1 UNK         1 GROUP             0       ****    0 ROOT    
