@<TRIPOS>MOLECULE
title: molecule 1
37   37    1
SMALL
USER_CHARGES


@<TRIPOS>ATOM
      1 C1          3.1935   -1.2411    0.6023 C.3       1 UNK         0.1150 
      2 C2          4.6045   -1.8139    0.3310 C.ar      1 UNK        -0.1150 
      3 C3          2.1781   -2.2111   -0.0953 C.3       1 UNK        -0.1200 
      4 C4          3.0678    0.2112    0.0873 C.3       1 UNK        -0.1800 
      5 C5          2.9807   -1.1965    2.1359 C.3       1 UNK        -0.1800 
      6 C6          5.5435   -1.1588   -0.5072 C.ar      1 UNK        -0.1150 
      7 C7          4.9837   -3.0504    0.9108 C.ar      1 UNK        -0.1150 
      8 C8          0.6655   -1.8764   -0.3237 C.3       1 UNK         0.0000 
      9 C9          6.8169   -1.7134   -0.7410 C.ar      1 UNK        -0.1150 
     10 C10         6.2561   -3.6063    0.6778 C.ar      1 UNK        -0.1150 
     11 C11        -0.0223   -3.1950   -0.7400 C.3       1 UNK        -0.1800 
     12 C12        -0.0523   -1.3674    0.9405 C.3       1 UNK        -0.1800 
     13 C13         0.4501   -0.8804   -1.4850 C.3       1 UNK        -0.1800 
     14 C14         7.1764   -2.9365   -0.1479 C.ar      1 UNK         0.1500 
     15 O15         8.4109   -3.4704   -0.3774 O.3       1 UNK        -0.5850 
     16 H16         2.5847   -2.4469   -1.0806 H         1 UNK         0.0600 
     17 H17         2.2253   -3.1573    0.4453 H         1 UNK         0.0600 
     18 H18         3.8532    0.8465    0.4986 H         1 UNK         0.0600 
     19 H19         3.1264    0.2651   -1.0001 H         1 UNK         0.0600 
     20 H20         2.1284    0.6695    0.3904 H         1 UNK         0.0600 
     21 H21         3.8071   -0.6798    2.6256 H         1 UNK         0.0600 
     22 H22         2.0783   -0.6612    2.4212 H         1 UNK         0.0600 
     23 H23         2.9106   -2.1900    2.5776 H         1 UNK         0.0600 
     24 H24         5.3166   -0.2228   -0.9924 H         1 UNK         0.1150 
     25 H25         4.2967   -3.5945    1.5408 H         1 UNK         0.1150 
     26 H26         7.5178   -1.1968   -1.3804 H         1 UNK         0.1150 
     27 H27         6.5190   -4.5494    1.1341 H         1 UNK         0.1150 
     28 H28        -1.0826   -3.0485   -0.9499 H         1 UNK         0.0600 
     29 H29         0.4309   -3.6147   -1.6391 H         1 UNK         0.0600 
     30 H30         0.0478   -3.9496    0.0445 H         1 UNK         0.0600 
     31 H31        -1.1316   -1.3256    0.7892 H         1 UNK         0.0600 
     32 H32         0.1298   -2.0214    1.7938 H         1 UNK         0.0600 
     33 H33         0.2568   -0.3590    1.2090 H         1 UNK         0.0600 
     34 H34        -0.6042   -0.8202   -1.7576 H         1 UNK         0.0600 
     35 H35         0.7541    0.1341   -1.2405 H         1 UNK         0.0600 
     36 H36         0.9963   -1.1840   -2.3786 H         1 UNK         0.0600 
     37 H37         8.5489   -4.2927    0.0668 H         1 UNK         0.4350 
@<TRIPOS>BOND
     1    1    2 1    
     2    1    3 1    
     3    1    4 1    
     4    1    5 1    
     5    2    6 ar   
     6    2    7 ar   
     7    3    8 1    
     8    3   16 1    
     9    3   17 1    
    10    4   18 1    
    11    4   19 1    
    12    4   20 1    
    13    5   21 1    
    14    5   22 1    
    15    5   23 1    
    16    6    9 ar   
    17    6   24 1    
    18    7   10 ar   
    19    7   25 1    
    20    8   11 1    
    21    8   12 1    
    22    8   13 1    
    23    9   14 ar   
    24    9   26 1    
    25   10   14 ar   
    26   10   27 1    
    27   11   28 1    
    28   11   29 1    
    29   11   30 1    
    30   12   31 1    
    31   12   32 1    
    32   12   33 1    
    33   13   34 1    
    34   13   35 1    
    35   13   36 1    
    36   14   15 1    
    37   15   37 1    
@<TRIPOS>SUBSTRUCTURE
     1 UNK         1 GROUP             0       ****    0 ROOT    
