@<TRIPOS>MOLECULE
title: molecule 1
14   13    1
SMALL
USER_CHARGES


@<TRIPOS>ATOM
      1 C1          4.8428   -1.8839    0.0824 C.3       1 UNK        -0.1800 
      2 C2          3.6158   -0.9820    0.0742 C.2       1 UNK         0.5100 
      3 O3          3.7188    0.2444    0.0438 O.2       1 UNK        -0.4300 
      4 O4          2.4686   -1.6776    0.1033 O.3       1 UNK        -0.3300 
      5 C5          1.2306   -0.9861    0.1003 C.3       1 UNK         0.1900 
      6 C6          0.0838   -1.9993    0.1370 C.3       1 UNK        -0.1800 
      7 H7          5.7556   -1.2883    0.0585 H         1 UNK         0.0600 
      8 H8          4.8544   -2.4987    0.9824 H         1 UNK         0.0600 
      9 H9          4.8354   -2.5407   -0.7874 H         1 UNK         0.0600 
     10 H10         1.1734   -0.3244    0.9657 H         1 UNK         0.0300 
     11 H11         1.1543   -0.3665   -0.7944 H         1 UNK         0.0300 
     12 H12        -0.8812   -1.4924    0.1354 H         1 UNK         0.0600 
     13 H13         0.1160   -2.6598   -0.7299 H         1 UNK         0.0600 
     14 H14         0.1352   -2.6176    1.0336 H         1 UNK         0.0600 
@<TRIPOS>BOND
     1    1    2 1    
     2    1    7 1    
     3    1    8 1    
     4    1    9 1    
     5    2    3 2    
     6    2    4 1    
     7    4    5 1    
     8    5    6 1    
     9    5   10 1    
    10    5   11 1    
    11    6   12 1    
    12    6   13 1    
    13    6   14 1    
@<TRIPOS>SUBSTRUCTURE
     1 UNK         1 GROUP             0       ****    0 ROOT    
