@<TRIPOS>MOLECULE
title: molecule 1
11   10    1
SMALL
USER_CHARGES


@<TRIPOS>ATOM
      1 Cl1         5.1455   -0.7123    0.1057 Cl        1 UNK        -0.2000 
      2 C2          3.7005    0.3300    0.0905 C.3       1 UNK        -0.0060 
      3 C3          2.4284   -0.5260    0.0955 C.3       1 UNK        -0.1200 
      4 C4          1.1509    0.3219    0.0828 C.3       1 UNK        -0.0060 
      5 Cl5        -0.2875   -0.7294    0.0893 Cl        1 UNK        -0.2000 
      6 H6          3.7540    0.9583   -0.7990 H         1 UNK         0.1030 
      7 H7          3.7487    0.9766    0.9671 H         1 UNK         0.1030 
      8 H8          2.4331   -1.1874   -0.7717 H         1 UNK         0.0600 
      9 H9          2.4278   -1.1693    0.9762 H         1 UNK         0.0600 
     10 H10         1.0934    0.9682    0.9591 H         1 UNK         0.1030 
     11 H11         1.0988    0.9499   -0.8070 H         1 UNK         0.1030 
@<TRIPOS>BOND
     1    1    2 1    
     2    2    3 1    
     3    2    6 1    
     4    2    7 1    
     5    3    4 1    
     6    3    8 1    
     7    3    9 1    
     8    4    5 1    
     9    4   10 1    
    10    4   11 1    
@<TRIPOS>SUBSTRUCTURE
     1 UNK         1 GROUP             0       ****    0 ROOT    
