@<TRIPOS>MOLECULE
title: molecule 1
27   26    1
SMALL
USER_CHARGES


@<TRIPOS>ATOM
      1 C1          9.6597   -0.7516    0.1049 C.3       1 UNK        -0.1800 
      2 C2          8.4451    0.1831    0.1224 C.3       1 UNK        -0.1200 
      3 C3          7.1130   -0.5802    0.1016 C.3       1 UNK        -0.1200 
      4 C4          5.8975    0.3540    0.1191 C.3       1 UNK         0.1400 
      5 O5          4.7165   -0.4300    0.0983 O.3       1 UNK        -0.4000 
      6 C6          3.5363    0.3555    0.1126 C.3       1 UNK         0.1400 
      7 C7          2.3198   -0.5772    0.0884 C.3       1 UNK        -0.1200 
      8 C8          0.9886    0.1878    0.1018 C.3       1 UNK        -0.1200 
      9 C9         -0.2272   -0.7454    0.0776 C.3       1 UNK        -0.1800 
     10 H10        10.5888   -0.1814    0.1202 H         1 UNK         0.0600 
     11 H11         9.6609   -1.4124    0.9721 H         1 UNK         0.0600 
     12 H12         9.6658   -1.3731   -0.7910 H         1 UNK         0.0600 
     13 H13         8.4911    0.8147    1.0103 H         1 UNK         0.0600 
     14 H14         8.4959    0.8537   -0.7362 H         1 UNK         0.0600 
     15 H15         7.0682   -1.2119   -0.7864 H         1 UNK         0.0600 
     16 H16         7.0634   -1.2508    0.9603 H         1 UNK         0.0600 
     17 H17         5.9164    0.9777    1.0143 H         1 UNK         0.0300 
     18 H18         5.9213    1.0171   -0.7472 H         1 UNK         0.0300 
     19 H19         3.5133    0.9792    1.0076 H         1 UNK         0.0300 
     20 H20         3.5181    1.0186   -0.7538 H         1 UNK         0.0300 
     21 H21         2.3686   -1.2089   -0.7994 H         1 UNK         0.0600 
     22 H22         2.3638   -1.2479    0.9474 H         1 UNK         0.0600 
     23 H23         0.9384    0.8194    0.9895 H         1 UNK         0.0600 
     24 H24         0.9432    0.8584   -0.7570 H         1 UNK         0.0600 
     25 H25        -1.1556   -0.1740    0.0878 H         1 UNK         0.0600 
     26 H26        -0.2290   -1.3669   -0.8182 H         1 UNK         0.0600 
     27 H27        -0.2339   -1.4062    0.9448 H         1 UNK         0.0600 
@<TRIPOS>BOND
     1    1    2 1    
     2    1   10 1    
     3    1   11 1    
     4    1   12 1    
     5    2    3 1    
     6    2   13 1    
     7    2   14 1    
     8    3    4 1    
     9    3   15 1    
    10    3   16 1    
    11    4    5 1    
    12    4   17 1    
    13    4   18 1    
    14    5    6 1    
    15    6    7 1    
    16    6   19 1    
    17    6   20 1    
    18    7    8 1    
    19    7   21 1    
    20    7   22 1    
    21    8    9 1    
    22    8   23 1    
    23    8   24 1    
    24    9   25 1    
    25    9   26 1    
    26    9   27 1    
@<TRIPOS>SUBSTRUCTURE
     1 UNK         1 GROUP             0       ****    0 ROOT    
