@<TRIPOS>MOLECULE
title: molecule 1
21   25    1
SMALL
USER_CHARGES


@<TRIPOS>ATOM
      1 C1          3.3953   -2.1081    1.3323 C.3       1 UNK         0.2671 
      2 C2          2.6679   -1.6241    0.0513 C.3       1 UNK         0.2671 
      3 C3          4.8740   -2.2085    0.8913 C.3       1 UNK         0.2000 
      4 C4          3.3128   -3.6434    1.2455 C.3       1 UNK         0.2000 
      5 Cl5         2.9966   -1.2873    2.9071 Cl        1 UNK        -0.2671 
      6 C6          3.8080   -1.4992   -0.9857 C.3       1 UNK         0.2000 
      7 C7          2.2392   -2.9290   -0.6449 C.3       1 UNK         0.2000 
      8 Cl8         1.4644   -0.2677    0.2092 Cl        1 UNK        -0.2671 
      9 C9          4.4405   -3.5239    0.2036 C.3       1 UNK         0.2000 
     10 C10         5.0882   -1.1701   -0.2132 C.3       1 UNK         0.2716 
     11 Cl11        6.1989   -2.2280    2.1417 Cl        1 UNK        -0.2000 
     12 C12         2.0694   -3.9329    0.4572 C.2       1 UNK         0.4700 
     13 Cl13        3.5319   -4.6689    2.7339 Cl        1 UNK        -0.2000 
     14 C14         3.7131   -3.0398   -1.0772 C.3       1 UNK         0.2000 
     15 Cl15        3.5747   -0.4819   -2.4790 Cl        1 UNK        -0.2000 
     16 Cl16        0.9077   -2.9228   -1.8867 Cl        1 UNK        -0.2000 
     17 Cl17        5.6469   -4.8774    0.0446 Cl        1 UNK        -0.2000 
     18 Cl18        6.5599   -1.4954   -1.1719 Cl        1 UNK        -0.1358 
     19 Cl19        5.0870    0.5006    0.4189 Cl        1 UNK        -0.1358 
     20 O20         1.1747   -4.7524    0.6556 O.2       1 UNK        -0.4700 
     21 Cl21        4.1151   -3.8582   -2.6524 Cl        1 UNK        -0.2000 
@<TRIPOS>BOND
     1    1    2 1    
     2    1    3 1    
     3    1    4 1    
     4    1    5 1    
     5    2    6 1    
     6    2    7 1    
     7    2    8 1    
     8    3    9 1    
     9    3   10 1    
    10    3   11 1    
    11    4    9 1    
    12    4   12 1    
    13    4   13 1    
    14    6   14 1    
    15    6   15 1    
    16    6   10 1    
    17    7   14 1    
    18    7   16 1    
    19    7   12 1    
    20    9   14 1    
    21    9   17 1    
    22   10   18 1    
    23   10   19 1    
    24   12   20 2    
    25   14   21 1    
@<TRIPOS>SUBSTRUCTURE
     1 UNK         1 GROUP             0       ****    0 ROOT    
