@<TRIPOS>MOLECULE
title: molecule 1
18   19    1
SMALL
USER_CHARGES


@<TRIPOS>ATOM
      1 C1          1.2616    2.2382    0.1537 C.ar      1 UNK        -0.2617 
      2 C2          1.2958    0.8317    0.1058 C.ar      1 UNK        -0.0006 
      3 C3          2.4632    2.9674    0.1635 C.ar      1 UNK        -0.1358 
      4 C4          2.5353    0.1603    0.0644 C.ar      1 UNK        -0.4343 
      5 C5          0.0041    0.0405    0.0920 C.3       1 UNK        -0.0650 
      6 C6          3.6958    2.2893    0.1240 C.ar      1 UNK        -0.0677 
      7 C7          3.7660    0.8597    0.0727 C.ar      1 UNK         0.4742 
      8 S8          5.3064    2.9947    0.1275 S.3       1 UNK        -0.0683 
      9 C9          5.1317    0.3809    0.0374 C.2       1 UNK        -0.4654 
     10 C10         6.0318    1.4169    0.0621 C.2       1 UNK        -0.1541 
     11 H11         0.3164    2.7608    0.1827 H         1 UNK         0.1618 
     12 H12         2.4415    4.0465    0.2008 H         1 UNK         0.1879 
     13 H13         2.5518   -0.9189    0.0246 H         1 UNK         0.1983 
     14 H14         0.1265   -0.9110    0.6103 H         1 UNK         0.0600 
     15 H15        -0.7970    0.5918    0.5852 H         1 UNK         0.0600 
     16 H16        -0.3004   -0.1636   -0.9346 H         1 UNK         0.0600 
     17 H17         5.3982   -0.6648   -0.0032 H         1 UNK         0.2229 
     18 H18         7.1091    1.3393    0.0450 H         1 UNK         0.2278 
@<TRIPOS>BOND
     1    1    2 ar   
     2    1    3 ar   
     3    1   11 1    
     4    2    4 ar   
     5    2    5 1    
     6    3    6 ar   
     7    3   12 1    
     8    4    7 ar   
     9    4   13 1    
    10    5   14 1    
    11    5   15 1    
    12    5   16 1    
    13    6    7 ar   
    14    6    8 1    
    15    7    9 1    
    16    8   10 1    
    17    9   10 2    
    18    9   17 1    
    19   10   18 1    
@<TRIPOS>SUBSTRUCTURE
     1 UNK         1 GROUP             0       ****    0 ROOT    
