@<TRIPOS>MOLECULE
title: molecule 1
18   19    1
SMALL
USER_CHARGES


@<TRIPOS>ATOM
      1 C1          0.1278    0.1299    0.1287 C.3       1 UNK        -0.0650 
      2 C2         -0.2410    1.5739   -0.0214 C.2       1 UNK        -0.3575 
      3 C3         -1.5982    2.0841   -0.0749 C.ar      1 UNK         0.4742 
      4 C4          0.6734    2.5943   -0.1268 C.2       1 UNK        -0.1541 
      5 C5         -1.6412    3.5087   -0.2228 C.ar      1 UNK        -0.0677 
      6 C6         -2.8452    1.4156   -0.0061 C.ar      1 UNK        -0.4343 
      7 S7         -0.0194    4.1786   -0.2916 S.3       1 UNK        -0.0683 
      8 C8         -2.8598    4.2098   -0.2961 C.ar      1 UNK        -0.1358 
      9 C9         -4.0677    2.1114   -0.0789 C.ar      1 UNK        -0.0101 
     10 C10        -4.0764    3.5096   -0.2240 C.ar      1 UNK        -0.2617 
     11 H11         1.2089   -0.0113    0.1445 H         1 UNK         0.0600 
     12 H12        -0.2712   -0.2823    1.0557 H         1 UNK         0.0600 
     13 H13        -0.2693   -0.4637   -0.6950 H         1 UNK         0.0600 
     14 H14         1.7495    2.5004   -0.1166 H         1 UNK         0.2278 
     15 H15        -2.8592    0.3416    0.1053 H         1 UNK         0.1983 
     16 H16        -2.8590    5.2840   -0.4076 H         1 UNK         0.1879 
     17 H17        -5.0006    1.5697   -0.0231 H         1 UNK         0.1245 
     18 H18        -5.0140    4.0433   -0.2799 H         1 UNK         0.1618 
@<TRIPOS>BOND
     1    1    2 1    
     2    1   11 1    
     3    1   12 1    
     4    1   13 1    
     5    2    3 1    
     6    2    4 2    
     7    3    5 ar   
     8    3    6 ar   
     9    4    7 1    
    10    4   14 1    
    11    5    8 ar   
    12    5    7 1    
    13    6    9 ar   
    14    6   15 1    
    15    8   10 ar   
    16    8   16 1    
    17    9   10 ar   
    18    9   17 1    
    19   10   18 1    
@<TRIPOS>SUBSTRUCTURE
     1 UNK         1 GROUP             0       ****    0 ROOT    
