@<TRIPOS>MOLECULE
title: molecule 1
23   23    1
SMALL
USER_CHARGES


@<TRIPOS>ATOM
      1 C1         -0.4368    1.3564    0.2550 C.ar      1 UNK        -0.1150 
      2 C2         -1.1386    0.1238    0.1144 C.ar      1 UNK        -0.1150 
      3 C3          0.9757    1.3516    0.3136 C.ar      1 UNK        -0.1150 
      4 C4         -1.1520    2.6759    0.3841 C.2       1 UNK         0.6150 
      5 C5         -0.3971   -1.0865    0.0296 C.ar      1 UNK         0.0900 
      6 C6         -2.6675    0.1007    0.0601 C.3       1 UNK        -0.0650 
      7 C7          1.7124    0.1511    0.2364 C.ar      1 UNK         0.0900 
      8 O8         -2.1233    2.8228    1.1227 O.2       1 UNK        -0.5000 
      9 N9         -0.6740    3.6682   -0.3711 N.am      1 UNK        -0.7600 
     10 C10         1.0099   -1.0626    0.0967 C.ar      1 UNK        -0.1150 
     11 N11        -1.0517   -2.3909   -0.1262 N.pl3     1 UNK         0.6500 
     12 N12         3.1874    0.1646    0.3036 N.pl3     1 UNK         0.6500 
     13 O13        -1.0080   -3.1616    0.8258 O.co2     1 UNK        -0.3700 
     14 O14        -1.5735   -2.6423   -1.2070 O.co2     1 UNK        -0.3700 
     15 O15         3.7547    1.2472    0.4095 O.co2     1 UNK        -0.3700 
     16 O16         3.7811   -0.9076    0.2493 O.co2     1 UNK        -0.3700 
     17 H17         1.5022    2.2875    0.4357 H         1 UNK         0.1150 
     18 H18        -3.0865   -0.8567   -0.2413 H         1 UNK         0.0600 
     19 H19        -3.0790    0.3340    1.0423 H         1 UNK         0.0600 
     20 H20        -3.0382    0.8388   -0.6515 H         1 UNK         0.0600 
     21 H21        -1.1139    4.5760   -0.3354 H         1 UNK         0.3800 
     22 H22         0.1165    3.5062   -0.9774 H         1 UNK         0.3800 
     23 H23         1.5486   -1.9972    0.0340 H         1 UNK         0.1150 
@<TRIPOS>BOND
     1    1    2 ar   
     2    1    3 ar   
     3    1    4 1    
     4    2    5 ar   
     5    2    6 1    
     6    3    7 ar   
     7    3   17 1    
     8    4    8 2    
     9    4    9 am   BACKBONE|DICT|INTERRES
    10    5   10 ar   
    11    5   11 1    
    12    6   18 1    
    13    6   19 1    
    14    6   20 1    
    15    7   10 ar   
    16    7   12 1    
    17    9   21 1    
    18    9   22 1    
    19   10   23 1    
    20   11   13 2    
    21   11   14 1    
    22   12   15 2    
    23   12   16 1    
@<TRIPOS>SUBSTRUCTURE
     1 UNK         1 GROUP             0       ****    0 ROOT    
