@<TRIPOS>MOLECULE
title: molecule 1
15   16    1
SMALL
USER_CHARGES


@<TRIPOS>ATOM
      1 N1          0.1264    0.2355    0.0886 N.pl3     1 UNK        -0.3068 
      2 C2         -0.6205    1.3634    0.0004 C.2       1 UNK         0.4055 
      3 C3          1.5106    0.4100   -0.0625 C.ar      1 UNK         0.0850 
      4 S4         -2.2717    1.4260    0.1431 S.2       1 UNK        -0.4762 
      5 S5          0.4163    2.7614   -0.2887 S.3       1 UNK        -0.1600 
      6 C6          2.5032   -0.5840   -0.0155 C.ar      1 UNK        -0.1150 
      7 C7          1.8334    1.7432   -0.2772 C.ar      1 UNK         0.1525 
      8 C8          3.8477   -0.1856   -0.1941 C.ar      1 UNK        -0.1150 
      9 C9          3.1626    2.1609   -0.4571 C.ar      1 UNK        -0.1150 
     10 C10         4.1748    1.1755   -0.4130 C.ar      1 UNK        -0.1150 
     11 H11        -0.2860   -0.6714    0.2523 H         1 UNK         0.3000 
     12 H12         2.2489   -1.6203    0.1517 H         1 UNK         0.1150 
     13 H13         4.6334   -0.9262   -0.1633 H         1 UNK         0.1150 
     14 H14         3.4032    3.2006   -0.6235 H         1 UNK         0.1150 
     15 H15         5.2073    1.4629   -0.5476 H         1 UNK         0.1150 
@<TRIPOS>BOND
     1    1    2 1    
     2    1    3 1    
     3    1   11 1    
     4    2    4 2    
     5    2    5 1    
     6    3    6 ar   
     7    3    7 ar   
     8    5    7 1    
     9    6    8 ar   
    10    6   12 1    
    11    7    9 ar   
    12    8   10 ar   
    13    8   13 1    
    14    9   10 ar   
    15    9   14 1    
    16   10   15 1    
@<TRIPOS>SUBSTRUCTURE
     1 UNK         1 GROUP             0       ****    0 ROOT    
