@<TRIPOS>MOLECULE
title: molecule 1
17   17    1
SMALL
USER_CHARGES


@<TRIPOS>ATOM
      1 O1          5.9912   -2.5870    0.1244 O.3       1 UNK        -0.5850 
      2 C2          4.8300   -1.8704    0.1144 C.ar      1 UNK         0.1500 
      3 C3          3.5911   -2.5402    0.0902 C.ar      1 UNK        -0.1150 
      4 C4          4.8677   -0.4632    0.1284 C.ar      1 UNK        -0.1150 
      5 C5          2.3790   -1.8189    0.0796 C.ar      1 UNK         0.0850 
      6 C6          3.6660    0.2690    0.1180 C.ar      1 UNK        -0.1150 
      7 O7          1.2132   -2.5541    0.0558 O.3       1 UNK        -0.2850 
      8 C8          2.4275   -0.4017    0.0938 C.ar      1 UNK        -0.1150 
      9 C9         -0.0205   -1.8509    0.0447 C.3       1 UNK         0.1100 
     10 H10         6.7641   -2.0439    0.1407 H         1 UNK         0.4350 
     11 H11         3.5679   -3.6202    0.0796 H         1 UNK         0.1150 
     12 H12         5.8135    0.0583    0.1470 H         1 UNK         0.1150 
     13 H13         3.6935    1.3486    0.1287 H         1 UNK         0.1150 
     14 H14         1.5279    0.1946    0.0865 H         1 UNK         0.1150 
     15 H15        -0.8422   -2.5667    0.0261 H         1 UNK         0.0300 
     16 H16        -0.1382   -1.2376    0.9392 H         1 UNK         0.0300 
     17 H17        -0.1125   -1.2207   -0.8409 H         1 UNK         0.0300 
@<TRIPOS>BOND
     1    1    2 1    
     2    1   10 1    
     3    2    3 ar   
     4    2    4 ar   
     5    3    5 ar   
     6    3   11 1    
     7    4    6 ar   
     8    4   12 1    
     9    5    7 1    
    10    5    8 ar   
    11    6    8 ar   
    12    6   13 1    
    13    7    9 1    
    14    8   14 1    
    15    9   15 1    
    16    9   16 1    
    17    9   17 1    
@<TRIPOS>SUBSTRUCTURE
     1 UNK         1 GROUP             0       ****    0 ROOT    
