@<TRIPOS>MOLECULE
title: molecule 1
20   19    1
SMALL
USER_CHARGES


@<TRIPOS>ATOM
      1 C1          0.0732    0.9759    0.0873 C.3       1 UNK        -0.1200 
      2 C2          1.6060    0.8645    0.1104 C.3       1 UNK         0.0320 
      3 C3         -0.5392    0.3318   -1.1639 C.3       1 UNK        -0.1200 
      4 N4          2.1745    1.5048    1.2956 N.pl3     1 UNK        -0.4272 
      5 C5         -2.0679    0.4383   -1.1925 C.3       1 UNK        -0.1800 
      6 C6          2.3622    0.9075    2.4992 C.2       1 UNK         0.4157 
      7 N7          2.8988    1.7878    3.3647 N.pl3     1 UNK        -0.7839 
      8 S8          2.0134   -0.6630    2.9304 S.2       1 UNK        -0.4762 
      9 H9         -0.3444    0.5016    0.9763 H         1 UNK         0.0600 
     10 H10        -0.2158    2.0266    0.1340 H         1 UNK         0.0600 
     11 H11         1.9193   -0.1779    0.0417 H         1 UNK         0.0600 
     12 H12         2.0198    1.3622   -0.7669 H         1 UNK         0.0600 
     13 H13        -0.1293    0.8045   -2.0571 H         1 UNK         0.0600 
     14 H14        -0.2519   -0.7193   -1.2112 H         1 UNK         0.0600 
     15 H15         2.4441    2.4726    1.2003 H         1 UNK         0.2912 
     16 H16        -2.4730   -0.0278   -2.0909 H         1 UNK         0.0600 
     17 H17        -2.5134   -0.0588   -0.3303 H         1 UNK         0.0600 
     18 H18        -2.3906    1.4797   -1.1836 H         1 UNK         0.0600 
     19 H19         3.0964    1.4849    4.3076 H         1 UNK         0.4142 
     20 H20         3.0979    2.7325    3.0718 H         1 UNK         0.4142 
@<TRIPOS>BOND
     1    1    2 1    
     2    1    3 1    
     3    1    9 1    
     4    1   10 1    
     5    2    4 1    
     6    2   11 1    
     7    2   12 1    
     8    3    5 1    
     9    3   13 1    
    10    3   14 1    
    11    4    6 1    
    12    4   15 1    
    13    5   16 1    
    14    5   17 1    
    15    5   18 1    
    16    6    7 1    
    17    6    8 2    
    18    7   19 1    
    19    7   20 1    
@<TRIPOS>SUBSTRUCTURE
     1 UNK         1 GROUP             0       ****    0 ROOT    
