@<TRIPOS>MOLECULE
title: molecule 1
29   28    1
SMALL
USER_CHARGES


@<TRIPOS>ATOM
      1 N1         -1.9362   -1.2045   -0.4637 N.3       1 UNK        -0.6300 
      2 C2         -2.2286   -2.3933   -1.2560 C.3       1 UNK         0.0300 
      3 C3         -2.4407   -1.3687    0.8966 C.3       1 UNK         0.0300 
      4 C4         -0.5278   -0.7868   -0.5511 C.3       1 UNK         0.1500 
      5 C5         -0.4403    0.7019   -0.1360 C.3       1 UNK         0.0475 
      6 C6          0.4248   -1.7263    0.2429 C.3       1 UNK         0.0475 
      7 S7          0.8457    1.6140   -1.0459 S.3       1 UNK        -0.2199 
      8 S8          2.1787   -1.5722   -0.2333 S.3       1 UNK        -0.2199 
      9 C9          0.7307    3.2043   -0.1964 C.2       1 UNK         0.6719 
     10 C10         2.8048   -0.5030    1.0884 C.2       1 UNK         0.6719 
     11 O11        -0.0769    3.4200    0.7044 O.2       1 UNK        -0.4970 
     12 N12         1.6448    4.1120   -0.6845 N.am      1 UNK        -0.8825 
     13 O13         2.0968   -0.0683    1.9932 O.2       1 UNK        -0.4970 
     14 N14         4.1494   -0.2448    0.9374 N.am      1 UNK        -0.8825 
     15 H15        -1.8938   -2.2643   -2.2857 H         1 UNK         0.0600 
     16 H16        -1.7537   -3.2859   -0.8492 H         1 UNK         0.0600 
     17 H17        -3.3040   -2.5724   -1.2820 H         1 UNK         0.0600 
     18 H18        -2.2645   -0.4749    1.4950 H         1 UNK         0.0600 
     19 H19        -3.5172   -1.5422    0.8792 H         1 UNK         0.0600 
     20 H20        -1.9762   -2.2170    1.4002 H         1 UNK         0.0600 
     21 H21        -0.2642   -0.8429   -1.6083 H         1 UNK         0.0600 
     22 H22        -1.3822    1.2118   -0.3456 H         1 UNK         0.0600 
     23 H23        -0.2725    0.7869    0.9380 H         1 UNK         0.0600 
     24 H24         0.2945   -1.6212    1.3192 H         1 UNK         0.0600 
     25 H25         0.1767   -2.7643    0.0281 H         1 UNK         0.0600 
     26 H26         1.6648    5.0353   -0.2771 H         1 UNK         0.3800 
     27 H27         2.2603    3.8205   -1.4297 H         1 UNK         0.3800 
     28 H28         4.6015    0.3458    1.6199 H         1 UNK         0.3800 
     29 H29         4.6320   -0.6543    0.1510 H         1 UNK         0.3800 
@<TRIPOS>BOND
     1    1    2 1    
     2    1    3 1    
     3    1    4 1    
     4    2   15 1    
     5    2   16 1    
     6    2   17 1    
     7    3   18 1    
     8    3   19 1    
     9    3   20 1    
    10    4    5 1    
    11    4    6 1    
    12    4   21 1    
    13    5    7 1    
    14    5   22 1    
    15    5   23 1    
    16    6    8 1    
    17    6   24 1    
    18    6   25 1    
    19    7    9 1    
    20    8   10 1    
    21    9   11 2    
    22    9   12 am   BACKBONE|DICT|INTERRES
    23   10   13 2    
    24   10   14 am   BACKBONE|DICT|INTERRES
    25   12   26 1    
    26   12   27 1    
    27   14   28 1    
    28   14   29 1    
@<TRIPOS>SUBSTRUCTURE
     1 UNK         1 GROUP             0       ****    0 ROOT    
