@<TRIPOS>MOLECULE
title: molecule 1
16   16    1
SMALL
USER_CHARGES


@<TRIPOS>ATOM
      1 C1         -1.0610    0.8468    0.0974 C.ar      1 UNK         0.1500 
      2 C2         -0.7605   -0.5340    0.1015 C.ar      1 UNK         0.1800 
      3 C3         -0.0131    1.7968    0.0912 C.ar      1 UNK        -0.1150 
      4 O4         -2.3635    1.2612    0.0993 O.3       1 UNK        -0.5850 
      5 C5          0.5808   -0.9631    0.0995 C.ar      1 UNK        -0.1150 
      6 Cl6        -2.0239   -1.7131    0.1090 Cl        1 UNK        -0.1800 
      7 C7          1.3277    1.3575    0.0893 C.ar      1 UNK        -0.1150 
      8 C8         -0.3159    3.2843    0.0867 C.3       1 UNK        -0.0650 
      9 C9          1.6243   -0.0188    0.0934 C.ar      1 UNK         0.1800 
     10 Cl10        3.2665   -0.5476    0.0911 Cl        1 UNK        -0.1800 
     11 H11        -2.4532    2.2016    0.0962 H         1 UNK         0.4350 
     12 H12         0.8091   -2.0188    0.1027 H         1 UNK         0.1150 
     13 H13         2.1350    2.0755    0.0847 H         1 UNK         0.1150 
     14 H14         0.5993    3.8771    0.0822 H         1 UNK         0.0600 
     15 H15        -0.8943    3.5519   -0.7979 H         1 UNK         0.0600 
     16 H16        -0.8897    3.5582    0.9724 H         1 UNK         0.0600 
@<TRIPOS>BOND
     1    1    2 ar   
     2    1    3 ar   
     3    1    4 1    
     4    2    5 ar   
     5    2    6 1    
     6    3    7 ar   
     7    3    8 1    
     8    4   11 1    
     9    5    9 ar   
    10    5   12 1    
    11    7    9 ar   
    12    7   13 1    
    13    8   14 1    
    14    8   15 1    
    15    8   16 1    
    16    9   10 1    
@<TRIPOS>SUBSTRUCTURE
     1 UNK         1 GROUP             0       ****    0 ROOT    
