@<TRIPOS>MOLECULE
title: molecule 1
16   16    1
SMALL
USER_CHARGES


@<TRIPOS>ATOM
      1 C1          1.2232   -1.8571    0.1075 C.ar      1 UNK        -0.1150 
      2 C2          1.2266   -0.4434    0.0969 C.ar      1 UNK         0.1500 
      3 C3          2.4483   -2.5573    0.0902 C.ar      1 UNK        -0.1150 
      4 C4         -0.0850   -2.6257    0.1371 C.3       1 UNK        -0.0650 
      5 C5          2.4489    0.2582    0.0693 C.ar      1 UNK        -0.1150 
      6 O6          0.0528    0.2548    0.1132 O.3       1 UNK        -0.5850 
      7 C7          3.6681   -1.8536    0.0627 C.ar      1 UNK         0.1800 
      8 C8          3.6683   -0.4457    0.0522 C.ar      1 UNK        -0.1150 
      9 Cl9         5.1619   -2.7167    0.0418 Cl        1 UNK        -0.1800 
     10 H10         2.4569   -3.6375    0.0981 H         1 UNK         0.1150 
     11 H11         0.0840   -3.7028    0.1420 H         1 UNK         0.0600 
     12 H12        -0.6550   -2.3680    1.0300 H         1 UNK         0.0600 
     13 H13        -0.6874   -2.3811   -0.7381 H         1 UNK         0.0600 
     14 H14         2.4567    1.3383    0.0612 H         1 UNK         0.1150 
     15 H15         0.1761    1.1914    0.1040 H         1 UNK         0.4350 
     16 H16         4.6028    0.0955    0.0311 H         1 UNK         0.1150 
@<TRIPOS>BOND
     1    1    2 ar   
     2    1    3 ar   
     3    1    4 1    
     4    2    5 ar   
     5    2    6 1    
     6    3    7 ar   
     7    3   10 1    
     8    4   11 1    
     9    4   12 1    
    10    4   13 1    
    11    5    8 ar   
    12    5   14 1    
    13    6   15 1    
    14    7    8 ar   
    15    7    9 1    
    16    8   16 1    
@<TRIPOS>SUBSTRUCTURE
     1 UNK         1 GROUP             0       ****    0 ROOT    
