@<TRIPOS>MOLECULE
title: molecule 1
39   39    1
SMALL
USER_CHARGES


@<TRIPOS>ATOM
      1 O1          5.8079   -2.7334    2.9167 O.co2     1 UNK        -0.3700 
      2 N2          5.4123   -1.8302    2.1878 N.pl3     1 UNK         0.6500 
      3 C3          4.4812   -2.1680    1.1004 C.ar      1 UNK         0.0900 
      4 O4          5.7120   -0.6492    2.3252 O.co2     1 UNK        -0.3700 
      5 C5          4.7996   -3.1324    0.1039 C.ar      1 UNK         0.2100 
      6 C6          3.2385   -1.5022    1.0616 C.ar      1 UNK        -0.1150 
      7 C7          3.8462   -3.4199   -0.9122 C.ar      1 UNK         0.0900 
      8 N8          6.0400   -3.7947    0.1243 N.pl3     1 UNK        -0.6300 
      9 C9          2.2932   -1.7889    0.0591 C.ar      1 UNK         0.1500 
     10 C10         2.6016   -2.7565   -0.9154 C.ar      1 UNK        -0.1150 
     11 N11         4.1091   -4.4009   -1.9762 N.pl3     1 UNK         0.6500 
     12 C12         6.1297   -5.0655    0.8375 C.3       1 UNK         0.0900 
     13 C13         7.1639   -3.1708   -0.5679 C.3       1 UNK         0.0900 
     14 C14         0.9478   -1.0785    0.0416 C.3       1 UNK         0.4500 
     15 O15         5.0974   -4.2404   -2.6841 O.co2     1 UNK        -0.3700 
     16 O16         3.2975   -5.3091   -2.1172 O.co2     1 UNK        -0.3700 
     17 C17         6.4950   -6.2445   -0.0773 C.3       1 UNK        -0.1200 
     18 C18         8.3209   -2.8027    0.3735 C.3       1 UNK        -0.1200 
     19 F19         0.4856   -0.9667   -1.2041 F         1 UNK        -0.2000 
     20 F20         0.0740   -1.7794    0.7629 F         1 UNK        -0.2000 
     21 F21         1.0496    0.1457    0.5602 F         1 UNK        -0.2000 
     22 C22         6.5709   -7.5687    0.6887 C.3       1 UNK        -0.1800 
     23 C23         9.4831   -2.1384   -0.3710 C.3       1 UNK        -0.1800 
     24 H24         3.0052   -0.7714    1.8225 H         1 UNK         0.1150 
     25 H25         1.8795   -2.9887   -1.6849 H         1 UNK         0.1150 
     26 H26         6.8703   -4.9707    1.6317 H         1 UNK         0.0600 
     27 H27         5.1796   -5.2714    1.3329 H         1 UNK         0.0600 
     28 H28         7.5197   -3.8500   -1.3428 H         1 UNK         0.0600 
     29 H29         6.8188   -2.2749   -1.0862 H         1 UNK         0.0600 
     30 H30         5.7602   -6.3401   -0.8759 H         1 UNK         0.0600 
     31 H31         7.4553   -6.0594   -0.5590 H         1 UNK         0.0600 
     32 H32         7.9690   -2.1276    1.1527 H         1 UNK         0.0600 
     33 H33         8.6894   -3.6956    0.8788 H         1 UNK         0.0600 
     34 H34         6.8325   -8.3894    0.0204 H         1 UNK         0.0600 
     35 H35         7.3253   -7.5260    1.4747 H         1 UNK         0.0600 
     36 H36         5.6145   -7.8099    1.1533 H         1 UNK         0.0600 
     37 H37        10.2917   -1.8878    0.3159 H         1 UNK         0.0600 
     38 H38         9.8895   -2.8001   -1.1365 H         1 UNK         0.0600 
     39 H39         9.1630   -1.2171   -0.8584 H         1 UNK         0.0600 
@<TRIPOS>BOND
     1    1    2 2    
     2    2    3 1    
     3    2    4 1    
     4    3    5 ar   
     5    3    6 ar   
     6    5    7 ar   
     7    5    8 1    
     8    6    9 ar   
     9    6   24 1    
    10    7   10 ar   
    11    7   11 1    
    12    8   12 1    
    13    8   13 1    
    14    9   10 ar   
    15    9   14 1    
    16   10   25 1    
    17   11   15 2    
    18   11   16 1    
    19   12   17 1    
    20   12   26 1    
    21   12   27 1    
    22   13   18 1    
    23   13   28 1    
    24   13   29 1    
    25   14   19 1    
    26   14   20 1    
    27   14   21 1    
    28   17   22 1    
    29   17   30 1    
    30   17   31 1    
    31   18   23 1    
    32   18   32 1    
    33   18   33 1    
    34   22   34 1    
    35   22   35 1    
    36   22   36 1    
    37   23   37 1    
    38   23   38 1    
    39   23   39 1    
@<TRIPOS>SUBSTRUCTURE
     1 UNK         1 GROUP             0       ****    0 ROOT    
