@<TRIPOS>MOLECULE
title: molecule 1
22   23    1
SMALL
USER_CHARGES


@<TRIPOS>ATOM
      1 C1          4.2949    2.5887    0.0798 C.ar      1 UNK         0.0000 
      2 C2          5.7680    2.5716    0.1153 C.ar      1 UNK         0.0000 
      3 C3          3.5592    3.7171   -0.3617 C.ar      1 UNK         0.1800 
      4 C4          3.5842    1.4407    0.4945 C.ar      1 UNK        -0.1150 
      5 C5          6.4870    3.4719    0.9332 C.ar      1 UNK        -0.1150 
      6 C6          6.4899    1.6346   -0.6567 C.ar      1 UNK        -0.1150 
      7 C7          2.1506    3.6887   -0.3723 C.ar      1 UNK        -0.1150 
      8 Cl8         4.3563    5.1462   -0.9207 Cl        1 UNK        -0.1800 
      9 C9          2.1764    1.4097    0.4841 C.ar      1 UNK         0.1800 
     10 C10         7.8947    3.4451    0.9709 C.ar      1 UNK        -0.1150 
     11 C11         7.8977    1.6038   -0.6221 C.ar      1 UNK        -0.1150 
     12 C12         1.4550    2.5408    0.0499 C.ar      1 UNK         0.1800 
     13 Cl13        1.3586   -0.0196    1.0067 Cl        1 UNK        -0.1800 
     14 C14         8.6017    2.5106    0.1917 C.ar      1 UNK        -0.1150 
     15 Cl15       -0.2726    2.5395    0.0234 Cl        1 UNK        -0.1800 
     16 H16         4.1277    0.5700    0.8322 H         1 UNK         0.1150 
     17 H17         5.9549    4.1915    1.5383 H         1 UNK         0.1150 
     18 H18         5.9606    0.9333   -1.2854 H         1 UNK         0.1150 
     19 H19         1.5998    4.5537   -0.7117 H         1 UNK         0.1150 
     20 H20         8.4313    4.1411    1.5987 H         1 UNK         0.1150 
     21 H21         8.4369    0.8838   -1.2200 H         1 UNK         0.1150 
     22 H22         9.6812    2.4884    0.2195 H         1 UNK         0.1150 
@<TRIPOS>BOND
     1    1    2 1    
     2    1    3 ar   
     3    1    4 ar   
     4    2    5 ar   
     5    2    6 ar   
     6    3    7 ar   
     7    3    8 1    
     8    4    9 ar   
     9    4   16 1    
    10    5   10 ar   
    11    5   17 1    
    12    6   11 ar   
    13    6   18 1    
    14    7   12 ar   
    15    7   19 1    
    16    9   12 ar   
    17    9   13 1    
    18   10   14 ar   
    19   10   20 1    
    20   11   14 ar   
    21   11   21 1    
    22   12   15 1    
    23   14   22 1    
@<TRIPOS>SUBSTRUCTURE
     1 UNK         1 GROUP             0       ****    0 ROOT    
