@<TRIPOS>MOLECULE
title: molecule 1
28   27    1
SMALL
USER_CHARGES


@<TRIPOS>ATOM
      1 C1          4.7940   -2.2932    0.3169 C.2       1 UNK         0.3495 
      2 C2          6.1795   -2.6215   -0.2340 C.3       1 UNK        -0.2126 
      3 N3          3.8482   -1.8037   -0.3690 N.2       1 UNK        -0.2897 
      4 C4          6.6778   -3.9355    0.3969 C.3       1 UNK        -0.0439 
      5 C5          6.1826   -2.7708   -1.7724 C.3       1 UNK        -0.0439 
      6 S6          7.3521   -1.2689    0.2751 S.o2      1 UNK         0.9408 
      7 O7          2.7090   -1.6036    0.4282 O.3       1 UNK        -0.1800 
      8 O8          7.2536   -1.0910    1.7321 O.2       1 UNK        -0.5300 
      9 O9          8.6640   -1.5429   -0.3309 O.2       1 UNK        -0.5300 
     10 C10         6.6747    0.2486   -0.5249 C.3       1 UNK        -0.4765 
     11 C11         1.6906   -1.0390   -0.2629 C.2       1 UNK         0.6995 
     12 O12         1.7082   -0.7123   -1.4530 O.2       1 UNK        -0.4970 
     13 N13         0.6214   -0.8895    0.6018 N.am      1 UNK        -0.5657 
     14 C14        -0.6492   -0.3113    0.1958 C.3       1 UNK        -0.0280 
     15 H15         4.6788   -2.5093    1.3838 H         1 UNK         0.0402 
     16 H16         7.6770   -4.1881    0.0405 H         1 UNK         0.0600 
     17 H17         6.7325   -3.8657    1.4843 H         1 UNK         0.0600 
     18 H18         6.0224   -4.7723    0.1518 H         1 UNK         0.0600 
     19 H19         7.1850   -2.9831   -2.1453 H         1 UNK         0.0600 
     20 H20         5.5386   -3.5914   -2.0911 H         1 UNK         0.0600 
     21 H21         5.8332   -1.8719   -2.2794 H         1 UNK         0.0600 
     22 H22         5.6575    0.4341   -0.1820 H         1 UNK         0.1787 
     23 H23         7.2987    1.0990   -0.2522 H         1 UNK         0.1787 
     24 H24         6.6857    0.1391   -1.6080 H         1 UNK         0.1787 
     25 H25         0.7515   -1.2028    1.5527 H         1 UNK         0.2912 
     26 H26        -1.3388   -0.2950    1.0397 H         1 UNK         0.0600 
     27 H27        -0.5142    0.7125   -0.1553 H         1 UNK         0.0600 
     28 H28        -1.1027   -0.8966   -0.6051 H         1 UNK         0.0600 
@<TRIPOS>BOND
     1    1    2 1    
     2    1    3 2    
     3    1   15 1    
     4    2    4 1    
     5    2    5 1    
     6    2    6 1    
     7    3    7 1    
     8    4   16 1    
     9    4   17 1    
    10    4   18 1    
    11    5   19 1    
    12    5   20 1    
    13    5   21 1    
    14    6    8 2    
    15    6    9 2    
    16    6   10 1    
    17    7   11 1    
    18   10   22 1    
    19   10   23 1    
    20   10   24 1    
    21   11   12 2    
    22   11   13 am   BACKBONE|DICT|INTERRES
    23   13   14 1    
    24   13   25 1    
    25   14   26 1    
    26   14   27 1    
    27   14   28 1    
@<TRIPOS>SUBSTRUCTURE
     1 UNK         1 GROUP             0       ****    0 ROOT    
