@<TRIPOS>MOLECULE
title: molecule 1
25   26    1
SMALL
USER_CHARGES


@<TRIPOS>ATOM
      1 O1          0.0647   -0.2424   -1.4252 O.3       1 UNK        -0.1700 
      2 C2         -1.0742   -0.0389   -0.6857 C.ar      1 UNK         0.0850 
      3 C3          1.2784   -0.1124   -0.7948 C.ar      1 UNK         0.0850 
      4 C4         -1.5004    1.2686   -0.3527 C.ar      1 UNK         0.1800 
      5 C5         -1.8470   -1.1487   -0.2763 C.ar      1 UNK         0.1800 
      6 C6          1.5499   -0.7409    0.4403 C.ar      1 UNK        -0.1150 
      7 C7          2.2856    0.6524   -1.4138 C.ar      1 UNK        -0.1150 
      8 C8         -2.6747    1.4560    0.4025 C.ar      1 UNK        -0.1150 
      9 Cl9        -0.6059    2.6532   -0.8700 Cl        1 UNK        -0.1800 
     10 C10        -3.0204   -0.9552    0.4782 C.ar      1 UNK        -0.1150 
     11 Cl11       -1.3627   -2.7534   -0.6931 Cl        1 UNK        -0.1800 
     12 C12         2.8093   -0.5910    1.0522 C.ar      1 UNK        -0.1150 
     13 C13         3.5450    0.8032   -0.8023 C.ar      1 UNK        -0.1150 
     14 C14        -3.4331    0.3462    0.8202 C.ar      1 UNK         0.1800 
     15 C15         3.8213    0.1841    0.4391 C.ar      1 UNK         0.0900 
     16 Cl16       -4.8706    0.5812    1.7445 Cl        1 UNK        -0.1800 
     17 N17         5.1414    0.3420    1.0814 N.pl3     1 UNK         0.6500 
     18 O18         5.3336   -0.2136    2.1582 O.co2     1 UNK        -0.3700 
     19 O19         5.9878    1.0219    0.5101 O.co2     1 UNK        -0.3700 
     20 H20         0.7959   -1.3425    0.9256 H         1 UNK         0.1150 
     21 H21         2.0891    1.1313   -2.3619 H         1 UNK         0.1150 
     22 H22        -2.9968    2.4549    0.6584 H         1 UNK         0.1150 
     23 H23        -3.6057   -1.8067    0.7933 H         1 UNK         0.1150 
     24 H24         2.9895   -1.0804    1.9981 H         1 UNK         0.1150 
     25 H25         4.2965    1.3998   -1.2984 H         1 UNK         0.1150 
@<TRIPOS>BOND
     1    1    2 1    
     2    1    3 1    
     3    2    4 ar   
     4    2    5 ar   
     5    3    6 ar   
     6    3    7 ar   
     7    4    8 ar   
     8    4    9 1    
     9    5   10 ar   
    10    5   11 1    
    11    6   12 ar   
    12    6   20 1    
    13    7   13 ar   
    14    7   21 1    
    15    8   14 ar   
    16    8   22 1    
    17   10   14 ar   
    18   10   23 1    
    19   12   15 ar   
    20   12   24 1    
    21   13   15 ar   
    22   13   25 1    
    23   14   16 1    
    24   15   17 1    
    25   17   18 2    
    26   17   19 1    
@<TRIPOS>SUBSTRUCTURE
     1 UNK         1 GROUP             0       ****    0 ROOT    
