@<TRIPOS>MOLECULE
title: molecule 1
14   14    1
SMALL
USER_CHARGES


@<TRIPOS>ATOM
      1 Cl1         4.3534   -0.5664    0.1127 Cl        1 UNK        -0.1800 
      2 C2          3.4890   -2.0761    0.1053 C.ar      1 UNK         0.1800 
      3 C3          4.2014   -3.3021    0.0976 C.ar      1 UNK         0.0350 
      4 C4          2.0711   -2.0824    0.1069 C.ar      1 UNK         0.0350 
      5 C5          3.4952   -4.5297    0.0916 C.ar      1 UNK         0.1800 
      6 C6          5.6612   -3.3018    0.0959 C.1       1 UNK         0.3950 
      7 C7          1.3699   -3.3129    0.1009 C.ar      1 UNK         0.1800 
      8 C8          1.3323   -0.8234    0.1148 C.1       1 UNK         0.3950 
      9 C9          2.0834   -4.5310    0.0932 C.ar      1 UNK         0.1800 
     10 Cl10        4.3435   -6.0437    0.0822 Cl        1 UNK        -0.1800 
     11 N11         6.8183   -3.3016    0.0945 N.1       1 UNK        -0.4300 
     12 Cl12       -0.3653   -3.3478    0.1027 Cl        1 UNK        -0.1800 
     13 N13         0.7466    0.1746    0.1210 N.1       1 UNK        -0.4300 
     14 Cl14        1.2229   -6.0340    0.0859 Cl        1 UNK        -0.1800 
@<TRIPOS>BOND
     1    1    2 1    
     2    2    3 ar   
     3    2    4 ar   
     4    3    5 ar   
     5    3    6 1    
     6    4    7 ar   
     7    4    8 1    
     8    5    9 ar   
     9    5   10 1    
    10    6   11 3    
    11    7    9 ar   
    12    7   12 1    
    13    8   13 3    
    14    9   14 1    
@<TRIPOS>SUBSTRUCTURE
     1 UNK         1 GROUP             0       ****    0 ROOT    
