@<TRIPOS>MOLECULE
title: molecule 1
16   16    1
SMALL
USER_CHARGES


@<TRIPOS>ATOM
      1 C1          3.6394   -1.8406    0.2432 C.ar      1 UNK         0.6537 
      2 N2          2.4805   -1.1517    0.3410 N.ar      1 UNK        -0.6780 
      3 C3          3.6774   -3.2498    0.0858 C.ar      1 UNK        -0.1120 
      4 C4          4.8940   -1.0240    0.3413 C.2       1 UNK         0.3513 
      5 C5          1.3106   -1.8201    0.2839 C.ar      1 UNK         0.6650 
      6 C6          2.4497   -3.9471    0.0273 C.ar      1 UNK         0.4920 
      7 Cl7         5.1748   -4.1159   -0.0538 Cl        1 UNK        -0.1800 
      8 O8          5.7858   -1.2779    1.1487 O.2       1 UNK        -0.4400 
      9 O9          4.9723   -0.0255   -0.5854 O.3       1 UNK        -0.5300 
     10 C10         1.2422   -3.2221    0.1285 C.ar      1 UNK        -0.1120 
     11 Cl11       -0.1406   -0.8918    0.4112 Cl        1 UNK        -0.1800 
     12 N12         2.4291   -5.3347   -0.1305 N.pl3     1 UNK        -0.9200 
     13 Cl13       -0.2875   -4.0322    0.0626 Cl        1 UNK        -0.1800 
     14 H14         5.7961    0.4349   -0.5452 H         1 UNK         0.4500 
     15 H15         3.2841   -5.8726   -0.1447 H         1 UNK         0.3600 
     16 H16         1.5607   -5.8506   -0.1146 H         1 UNK         0.3600 
@<TRIPOS>BOND
     1    1    2 ar   
     2    1    3 ar   
     3    1    4 1    
     4    2    5 ar   
     5    3    6 ar   
     6    3    7 1    
     7    4    8 2    
     8    4    9 1    
     9    5   10 ar   
    10    5   11 1    
    11    6   10 ar   
    12    6   12 1    
    13    9   14 1    
    14   10   13 1    
    15   12   15 1    
    16   12   16 1    
@<TRIPOS>SUBSTRUCTURE
     1 UNK         1 GROUP             0       ****    0 ROOT    
