@<TRIPOS>MOLECULE
title: molecule 1
35   36    1
SMALL
USER_CHARGES


@<TRIPOS>ATOM
      1 N1         -5.5654   -0.8357    0.0542 N.am      1 UNK        -0.2219 
      2 C2         -4.4115   -0.2867   -0.4006 C.2       1 UNK         0.8137 
      3 C3         -6.6894   -1.0667   -0.8576 C.3       1 UNK        -0.1303 
      4 C4         -5.7726   -1.2935    1.4353 C.3       1 UNK        -0.1303 
      5 O5         -4.2361   -0.0040   -1.5865 O.2       1 UNK        -0.6163 
      6 N6         -3.4885   -0.0806    0.5613 N.am      1 UNK        -0.4727 
      7 C7         -2.1845    0.4727    0.4453 C.ar      1 UNK         0.1066 
      8 C8         -1.2459    0.1263    1.4396 C.ar      1 UNK        -0.1150 
      9 C9         -1.8050    1.3763   -0.5769 C.ar      1 UNK        -0.1150 
     10 C10         0.0614    0.6480    1.4018 C.ar      1 UNK        -0.1150 
     11 C11        -0.4972    1.8978   -0.6130 C.ar      1 UNK        -0.1150 
     12 C12         0.4426    1.5296    0.3690 C.ar      1 UNK         0.0850 
     13 O13         1.7091    2.0519    0.3209 O.3       1 UNK        -0.1700 
     14 C14         2.7445    1.1693    0.1536 C.ar      1 UNK         0.0850 
     15 C15         2.8462    0.3850   -1.0160 C.ar      1 UNK        -0.1150 
     16 C16         3.7293    1.0589    1.1559 C.ar      1 UNK        -0.1150 
     17 C17         3.9206   -0.5119   -1.1747 C.ar      1 UNK        -0.1150 
     18 C18         4.8038    0.1619    0.9972 C.ar      1 UNK        -0.1150 
     19 C19         4.8992   -0.6244   -0.1677 C.ar      1 UNK         0.1800 
     20 Cl20        6.2152   -1.7232   -0.3619 Cl        1 UNK        -0.1800 
     21 H21        -7.6384   -1.1528   -0.3276 H         1 UNK         0.0600 
     22 H22        -6.8058   -0.2489   -1.5708 H         1 UNK         0.0600 
     23 H23        -6.5327   -1.9874   -1.4205 H         1 UNK         0.0600 
     24 H24        -4.9785   -1.9740    1.7465 H         1 UNK         0.0600 
     25 H25        -5.7899   -0.4455    2.1212 H         1 UNK         0.0600 
     26 H26        -6.7121   -1.8330    1.5586 H         1 UNK         0.0600 
     27 H27        -3.7323   -0.4286    1.4765 H         1 UNK         0.2912 
     28 H28        -1.5233   -0.5484    2.2365 H         1 UNK         0.1150 
     29 H29        -2.5031    1.6949   -1.3355 H         1 UNK         0.1150 
     30 H30         0.7718    0.3709    2.1669 H         1 UNK         0.1150 
     31 H31        -0.2148    2.5852   -1.3968 H         1 UNK         0.1150 
     32 H32         2.0994    0.4700   -1.7919 H         1 UNK         0.1150 
     33 H33         3.6586    1.6616    2.0495 H         1 UNK         0.1150 
     34 H34         3.9933   -1.1121   -2.0697 H         1 UNK         0.1150 
     35 H35         5.5544    0.0787    1.7694 H         1 UNK         0.1150 
@<TRIPOS>BOND
     1    1    2 am   BACKBONE|DICT|INTERRES
     2    1    3 1    
     3    1    4 1    
     4    2    5 2    
     5    2    6 am   BACKBONE|DICT|INTERRES
     6    3   21 1    
     7    3   22 1    
     8    3   23 1    
     9    4   24 1    
    10    4   25 1    
    11    4   26 1    
    12    6    7 1    
    13    6   27 1    
    14    7    8 ar   
    15    7    9 ar   
    16    8   10 ar   
    17    8   28 1    
    18    9   11 ar   
    19    9   29 1    
    20   10   12 ar   
    21   10   30 1    
    22   11   12 ar   
    23   11   31 1    
    24   12   13 1    
    25   13   14 1    
    26   14   15 ar   
    27   14   16 ar   
    28   15   17 ar   
    29   15   32 1    
    30   16   18 ar   
    31   16   33 1    
    32   17   19 ar   
    33   17   34 1    
    34   18   19 ar   
    35   18   35 1    
    36   19   20 1    
@<TRIPOS>SUBSTRUCTURE
     1 UNK         1 GROUP             0       ****    0 ROOT    
