@<TRIPOS>MOLECULE
title: molecule 1
27   30    1
SMALL
USER_CHARGES


@<TRIPOS>ATOM
      1 C1          0.2610    0.0938    0.1113 C.ar      1 UNK        -0.1150 
      2 C2          0.1263   -1.1932   -0.4321 C.ar      1 UNK        -0.1150 
      3 C3         -0.8893    0.8051    0.4841 C.ar      1 UNK        -0.1150 
      4 C4         -1.1535   -1.7625   -0.6002 C.ar      1 UNK         0.0000 
      5 C5         -2.1606    0.2262    0.3114 C.ar      1 UNK        -0.1150 
      6 C6         -2.3481   -1.0712   -0.2333 C.ar      1 UNK         0.0000 
      7 C7         -1.2526   -3.0558   -1.1484 C.ar      1 UNK        -0.1150 
      8 C8         -3.6988   -1.6386   -0.3964 C.ar      1 UNK        -0.0140 
      9 C9         -2.5113   -3.6517   -1.3292 C.ar      1 UNK        -0.1150 
     10 C10        -5.0983   -1.3050   -0.1706 C.ar      1 UNK        -0.0140 
     11 C11        -3.6721   -2.9508   -0.9602 C.ar      1 UNK         0.1090 
     12 C12        -5.8342   -2.4422   -0.6143 C.ar      1 UNK         0.1090 
     13 C13        -5.8431   -0.2158    0.3401 C.ar      1 UNK        -0.1150 
     14 O14        -4.9682   -3.4120   -1.0810 O.3       1 UNK        -0.1900 
     15 C15        -7.2362   -2.5125   -0.5614 C.ar      1 UNK        -0.1150 
     16 C16        -7.2526   -0.2697    0.4005 C.ar      1 UNK        -0.1150 
     17 C17        -7.9483   -1.4122   -0.0478 C.ar      1 UNK        -0.1150 
     18 H18         1.2397    0.5319    0.2410 H         1 UNK         0.1150 
     19 H19         1.0110   -1.7425   -0.7198 H         1 UNK         0.1150 
     20 H20        -0.7993    1.7964    0.9035 H         1 UNK         0.1150 
     21 H21        -3.0248    0.8004    0.6086 H         1 UNK         0.1150 
     22 H22        -0.3630   -3.5985   -1.4336 H         1 UNK         0.1150 
     23 H23        -2.5879   -4.6435   -1.7496 H         1 UNK         0.1150 
     24 H24        -5.3314    0.6685    0.6887 H         1 UNK         0.1150 
     25 H25        -7.7561   -3.3934   -0.9079 H         1 UNK         0.1150 
     26 H26        -7.8036    0.5720    0.7937 H         1 UNK         0.1150 
     27 H27        -9.0268   -1.4427    0.0030 H         1 UNK         0.1150 
@<TRIPOS>BOND
     1    1    2 ar   
     2    1    3 ar   
     3    1   18 1    
     4    2    4 ar   
     5    2   19 1    
     6    3    5 ar   
     7    3   20 1    
     8    4    6 ar   
     9    4    7 ar   
    10    5    6 ar   
    11    5   21 1    
    12    6    8 ar   
    13    7    9 ar   
    14    7   22 1    
    15    8   10 1    
    16    8   11 ar   
    17    9   11 ar   
    18    9   23 1    
    19   10   12 ar   
    20   10   13 ar   
    21   11   14 1    
    22   12   15 ar   
    23   12   14 1    
    24   13   16 ar   
    25   13   24 1    
    26   15   17 ar   
    27   15   25 1    
    28   16   17 ar   
    29   16   26 1    
    30   17   27 1    
@<TRIPOS>SUBSTRUCTURE
     1 UNK         1 GROUP             0       ****    0 ROOT    
