@<TRIPOS>MOLECULE
title: molecule 1
27   30    1
SMALL
USER_CHARGES


@<TRIPOS>ATOM
      1 C1         -3.6224   -1.4569    0.1517 C.ar      1 UNK        -0.1150 
      2 C2         -2.4210   -2.1769    0.1471 C.ar      1 UNK        -0.1150 
      3 C3         -3.5727   -0.0566    0.1400 C.ar      1 UNK        -0.1150 
      4 C4         -1.1906   -1.4936    0.1311 C.ar      1 UNK        -0.1150 
      5 C5         -2.3297    0.6110    0.1240 C.ar      1 UNK         0.0000 
      6 C6         -1.0765   -0.0753    0.1187 C.ar      1 UNK         0.0000 
      7 C7         -2.3364    2.0119    0.1128 C.ar      1 UNK        -0.1150 
      8 C8          0.2472    0.6034    0.1019 C.ar      1 UNK         0.0237 
      9 C9         -1.1267    2.7133    0.0968 C.ar      1 UNK        -0.1150 
     10 C10         1.6618    0.1865    0.0932 C.ar      1 UNK         0.0237 
     11 C11         0.1073    2.0370    0.0916 C.ar      1 UNK        -0.0401 
     12 C12         2.2966   -1.0843    0.0979 C.ar      1 UNK        -0.1150 
     13 C13         2.5361    1.3253    0.0765 C.ar      1 UNK        -0.0401 
     14 S14         1.6654    2.8505    0.0717 S.3       1 UNK         0.0328 
     15 C15         3.6975   -1.2252    0.0871 C.ar      1 UNK        -0.1150 
     16 C16         3.9376    1.1867    0.0656 C.ar      1 UNK        -0.1150 
     17 C17         4.5218   -0.0894    0.0709 C.ar      1 UNK        -0.1150 
     18 H18        -4.5714   -1.9725    0.1639 H         1 UNK         0.1150 
     19 H19        -2.4391   -3.2568    0.1560 H         1 UNK         0.1150 
     20 H20        -4.4957    0.5052    0.1434 H         1 UNK         0.1150 
     21 H21        -0.3069   -2.1040    0.1284 H         1 UNK         0.1150 
     22 H22        -3.2686    2.5584    0.1164 H         1 UNK         0.1150 
     23 H23        -1.1412    3.7933    0.0882 H         1 UNK         0.1150 
     24 H24         1.7153   -1.9894    0.1102 H         1 UNK         0.1150 
     25 H25         4.1395   -2.2106    0.0912 H         1 UNK         0.1150 
     26 H26         4.5658    2.0652    0.0532 H         1 UNK         0.1150 
     27 H27         5.5966   -0.1964    0.0625 H         1 UNK         0.1150 
@<TRIPOS>BOND
     1    1    2 ar   
     2    1    3 ar   
     3    1   18 1    
     4    2    4 ar   
     5    2   19 1    
     6    3    5 ar   
     7    3   20 1    
     8    4    6 ar   
     9    4   21 1    
    10    5    6 ar   
    11    5    7 ar   
    12    6    8 ar   
    13    7    9 ar   
    14    7   22 1    
    15    8   10 1    
    16    8   11 ar   
    17    9   11 ar   
    18    9   23 1    
    19   10   12 ar   
    20   10   13 ar   
    21   11   14 1    
    22   12   15 ar   
    23   12   24 1    
    24   13   14 1    
    25   13   16 ar   
    26   15   17 ar   
    27   15   25 1    
    28   16   17 ar   
    29   16   26 1    
    30   17   27 1    
@<TRIPOS>SUBSTRUCTURE
     1 UNK         1 GROUP             0       ****    0 ROOT    
