@<TRIPOS>MOLECULE
title: molecule 1
22   23    1
SMALL
USER_CHARGES


@<TRIPOS>ATOM
      1 Cl1         4.4597    0.1601    0.0793 Cl        1 UNK        -0.1800 
      2 C2          2.7344    0.1475    0.0868 C.ar      1 UNK         0.1800 
      3 C3          2.0348   -1.0078   -0.3066 C.ar      1 UNK        -0.1150 
      4 C4          2.0214    1.2925    0.4863 C.ar      1 UNK        -0.1150 
      5 C5          0.6263   -1.0155   -0.2993 C.ar      1 UNK        -0.1150 
      6 C6          0.6130    1.2796    0.4912 C.ar      1 UNK        -0.1150 
      7 C7         -0.1067    0.1268    0.0991 C.ar      1 UNK         0.0000 
      8 C8         -1.5840    0.1160    0.1055 C.ar      1 UNK         0.0000 
      9 C9         -2.3004   -1.0331    0.5144 C.ar      1 UNK        -0.1150 
     10 C10        -2.3206    1.2545   -0.2972 C.ar      1 UNK        -0.1150 
     11 C11        -3.7088   -1.0458    0.5218 C.ar      1 UNK        -0.1150 
     12 C12        -3.7291    1.2466   -0.2923 C.ar      1 UNK        -0.1150 
     13 C13        -4.4253    0.0952    0.1178 C.ar      1 UNK        -0.1150 
     14 H14         2.5766   -1.8894   -0.6162 H         1 UNK         0.1150 
     15 H15         2.5530    2.1819    0.7912 H         1 UNK         0.1150 
     16 H16         0.1087   -1.9103   -0.6125 H         1 UNK         0.1150 
     17 H17         0.0851    2.1668    0.8089 H         1 UNK         0.1150 
     18 H18        -1.7699   -1.9174    0.8359 H         1 UNK         0.1150 
     19 H19        -1.8059    2.1464   -0.6232 H         1 UNK         0.1150 
     20 H20        -4.2390   -1.9316    0.8392 H         1 UNK         0.1150 
     21 H21        -4.2748    2.1245   -0.6051 H         1 UNK         0.1150 
     22 H22        -5.5054    0.0873    0.1225 H         1 UNK         0.1150 
@<TRIPOS>BOND
     1    1    2 1    
     2    2    3 ar   
     3    2    4 ar   
     4    3    5 ar   
     5    3   14 1    
     6    4    6 ar   
     7    4   15 1    
     8    5    7 ar   
     9    5   16 1    
    10    6    7 ar   
    11    6   17 1    
    12    7    8 1    
    13    8    9 ar   
    14    8   10 ar   
    15    9   11 ar   
    16    9   18 1    
    17   10   12 ar   
    18   10   19 1    
    19   11   13 ar   
    20   11   20 1    
    21   12   13 ar   
    22   12   21 1    
    23   13   22 1    
@<TRIPOS>SUBSTRUCTURE
     1 UNK         1 GROUP             0       ****    0 ROOT    
