@<TRIPOS>MOLECULE
title: molecule 1
22   23    1
SMALL
USER_CHARGES


@<TRIPOS>ATOM
      1 C1          3.4193   -1.3357   -0.4754 C.ar      1 UNK        -0.1150 
      2 C2          4.3499   -0.4945    0.1609 C.ar      1 UNK        -0.1150 
      3 C3          2.0581   -0.9766   -0.5178 C.ar      1 UNK        -0.1150 
      4 C4          3.9146    0.7048    0.7531 C.ar      1 UNK        -0.1150 
      5 C5          1.6028    0.2258    0.0721 C.ar      1 UNK         0.0000 
      6 C6          2.5523    1.0598    0.7074 C.ar      1 UNK        -0.1150 
      7 C7          0.1745    0.6002    0.0260 C.ar      1 UNK         0.0000 
      8 C8         -0.8374   -0.3767    0.1758 C.ar      1 UNK        -0.1150 
      9 C9         -0.2183    1.9449   -0.1693 C.ar      1 UNK        -0.1150 
     10 C10        -2.2002   -0.0227    0.1324 C.ar      1 UNK         0.1800 
     11 C11        -1.5794    2.3041   -0.2141 C.ar      1 UNK        -0.1150 
     12 C12        -2.5727    1.3197   -0.0631 C.ar      1 UNK        -0.1150 
     13 Cl13       -3.4127   -1.2357    0.3206 Cl        1 UNK        -0.1800 
     14 H14         3.7491   -2.2567   -0.9331 H         1 UNK         0.1150 
     15 H15         5.3942   -0.7683    0.1947 H         1 UNK         0.1150 
     16 H16         1.3617   -1.6333   -1.0183 H         1 UNK         0.1150 
     17 H17         4.6251    1.3531    1.2444 H         1 UNK         0.1150 
     18 H18         2.2383    1.9813    1.1752 H         1 UNK         0.1150 
     19 H19        -0.5713   -1.4114    0.3345 H         1 UNK         0.1150 
     20 H20         0.5282    2.7153   -0.2953 H         1 UNK         0.1150 
     21 H21        -1.8607    3.3357   -0.3663 H         1 UNK         0.1150 
     22 H22        -3.6167    1.5947   -0.0974 H         1 UNK         0.1150 
@<TRIPOS>BOND
     1    1    2 ar   
     2    1    3 ar   
     3    1   14 1    
     4    2    4 ar   
     5    2   15 1    
     6    3    5 ar   
     7    3   16 1    
     8    4    6 ar   
     9    4   17 1    
    10    5    6 ar   
    11    5    7 1    
    12    6   18 1    
    13    7    8 ar   
    14    7    9 ar   
    15    8   10 ar   
    16    8   19 1    
    17    9   11 ar   
    18    9   20 1    
    19   10   12 ar   
    20   10   13 1    
    21   11   12 ar   
    22   11   21 1    
    23   12   22 1    
@<TRIPOS>SUBSTRUCTURE
     1 UNK         1 GROUP             0       ****    0 ROOT    
