@<TRIPOS>MOLECULE
title: molecule 1
26   29    1
SMALL
USER_CHARGES


@<TRIPOS>ATOM
      1 C1          4.4863   -2.1052    0.1049 C.ar      1 UNK         0.0000 
      2 C2          3.3626   -1.2754    0.0965 C.ar      1 UNK         0.0000 
      3 C3          5.8201   -1.6748    0.1041 C.ar      1 UNK         0.0000 
      4 C4          4.0597   -3.4354    0.1144 C.ar      1 UNK         0.0000 
      5 C5          3.5873    0.1156    0.0863 C.ar      1 UNK        -0.1150 
      6 C6          2.1631   -2.1179    0.1008 C.ar      1 UNK         0.0000 
      7 C7          6.0205   -0.2769    0.0937 C.ar      1 UNK        -0.1150 
      8 C8          6.7998   -2.6917    0.1137 C.ar      1 UNK        -0.1150 
      9 C9          5.0552   -4.4326    0.1238 C.ar      1 UNK        -0.1150 
     10 C10         2.5941   -3.4531    0.1118 C.ar      1 UNK         0.0000 
     11 C11         4.9142    0.6082    0.0849 C.ar      1 UNK        -0.1150 
     12 C12         0.7952   -1.7947    0.0958 C.ar      1 UNK        -0.1150 
     13 C13         6.4198   -4.0566    0.1235 C.ar      1 UNK        -0.1150 
     14 C14         1.6731   -4.5149    0.1182 C.ar      1 UNK        -0.1150 
     15 C15        -0.1396   -2.8542    0.1022 C.ar      1 UNK        -0.1150 
     16 C16         0.2954   -4.2019    0.1133 C.ar      1 UNK        -0.1150 
     17 H17         2.7525    0.8008    0.0795 H         1 UNK         0.1150 
     18 H18         7.0242    0.1222    0.0925 H         1 UNK         0.1150 
     19 H19         7.8475   -2.4288    0.1136 H         1 UNK         0.1150 
     20 H20         4.7785   -5.4765    0.1313 H         1 UNK         0.1150 
     21 H21         5.0859    1.6745    0.0771 H         1 UNK         0.1150 
     22 H22         0.4679   -0.7656    0.0873 H         1 UNK         0.1150 
     23 H23         7.1825   -4.8213    0.1307 H         1 UNK         0.1150 
     24 H24         2.0092   -5.5413    0.1267 H         1 UNK         0.1150 
     25 H25        -1.1969   -2.6337    0.0985 H         1 UNK         0.1150 
     26 H26        -0.4336   -4.9988    0.1181 H         1 UNK         0.1150 
@<TRIPOS>BOND
     1    1    2 ar   
     2    1    3 ar   
     3    1    4 ar   
     4    2    5 ar   
     5    2    6 1    
     6    3    7 ar   
     7    3    8 ar   
     8    4    9 ar   
     9    4   10 1    
    10    5   11 ar   
    11    5   17 1    
    12    6   10 ar   
    13    6   12 ar   
    14    7   11 ar   
    15    7   18 1    
    16    8   13 ar   
    17    8   19 1    
    18    9   13 ar   
    19    9   20 1    
    20   10   14 ar   
    21   11   21 1    
    22   12   15 ar   
    23   12   22 1    
    24   13   23 1    
    25   14   16 ar   
    26   14   24 1    
    27   15   16 ar   
    28   15   25 1    
    29   16   26 1    
@<TRIPOS>SUBSTRUCTURE
     1 UNK         1 GROUP             0       ****    0 ROOT    
