@<TRIPOS>MOLECULE
title: molecule 1
55   58    1
SMALL
USER_CHARGES


@<TRIPOS>ATOM
      1 C1         -1.3572    1.6511    0.1657 C.3       1 UNK        -0.0600 
      2 C2         -2.5159    2.5569   -0.2480 C.3       1 UNK         0.0000 
      3 C3         -2.7673    1.3692    0.6617 C.3       1 UNK        -0.0600 
      4 C4         -0.6999    0.7676   -0.8655 C.2       1 UNK         0.5100 
      5 C5         -2.5697    3.9559    0.3394 C.3       1 UNK        -0.1800 
      6 C6         -3.0772    2.5844   -1.6677 C.3       1 UNK        -0.1800 
      7 C7         -3.5775    0.1881    0.2363 C.2       1 UNK        -0.1150 
      8 O8         -0.2097    1.2223   -1.8998 O.2       1 UNK        -0.4300 
      9 O9         -0.6661   -0.5249   -0.4878 O.3       1 UNK        -0.3300 
     10 C10        -4.4299   -0.5154    1.0018 C.2       1 UNK         0.0000 
     11 C11        -0.0615   -1.5025   -1.3232 C.3       1 UNK         0.3050 
     12 C12        -5.2327   -1.6998    0.5172 C.3       1 UNK        -0.1200 
     13 C13        -4.7530   -0.2469    2.4558 C.3       1 UNK        -0.1200 
     14 C14         1.4323   -1.5913   -1.1345 C.2       1 UNK        -0.1430 
     15 C15        -6.2954   -1.9210    1.5963 C.3       1 UNK        -0.1200 
     16 C16        -5.6501   -1.4112    2.8892 C.3       1 UNK        -0.1200 
     17 C17         2.3697   -1.9047   -2.0797 C.2       1 UNK        -0.0190 
     18 C18         2.1734   -1.3951    0.0667 C.2       1 UNK        -0.1540 
     19 O19         3.6251   -1.9010   -1.5564 O.3       1 UNK        -0.1900 
     20 C20         3.4914   -1.5861   -0.2400 C.2       1 UNK         0.0080 
     21 C21         4.7526   -1.5141    0.5546 C.3       1 UNK         0.1100 
     22 C22         5.2678   -0.0920    0.6657 C.ar      1 UNK        -0.1150 
     23 C23         4.9076    0.7095    1.7697 C.ar      1 UNK        -0.1150 
     24 C24         6.1036    0.4385   -0.3397 C.ar      1 UNK        -0.1150 
     25 C25         5.3826    2.0320    1.8685 C.ar      1 UNK        -0.1150 
     26 C26         6.5782    1.7610   -0.2402 C.ar      1 UNK        -0.1150 
     27 C27         6.2182    2.5577    0.8641 C.ar      1 UNK        -0.1150 
     28 H28        -0.6659    2.0894    0.8826 H         1 UNK         0.0600 
     29 H29        -2.9388    1.6121    1.7080 H         1 UNK         0.0600 
     30 H30        -3.5980    4.3175    0.3673 H         1 UNK         0.0600 
     31 H31        -2.1778    3.9642    1.3570 H         1 UNK         0.0600 
     32 H32        -1.9733    4.6436   -0.2610 H         1 UNK         0.0600 
     33 H33        -4.1146    2.9197   -1.6556 H         1 UNK         0.0600 
     34 H34        -2.5004    3.2721   -2.2868 H         1 UNK         0.0600 
     35 H35        -3.0477    1.6051   -2.1431 H         1 UNK         0.0600 
     36 H36        -3.4574   -0.1306   -0.7882 H         1 UNK         0.1150 
     37 H37        -0.4932   -2.4730   -1.0786 H         1 UNK         0.0300 
     38 H38        -0.2922   -1.3139   -2.3729 H         1 UNK         0.0300 
     39 H39        -4.5717   -2.5650    0.4541 H         1 UNK         0.0600 
     40 H40        -5.6662   -1.5266   -0.4683 H         1 UNK         0.0600 
     41 H41        -5.2931    0.6980    2.5259 H         1 UNK         0.0600 
     42 H42        -3.8529   -0.1754    3.0672 H         1 UNK         0.0600 
     43 H43        -6.6133   -2.9617    1.6661 H         1 UNK         0.0600 
     44 H44        -7.1767   -1.3196    1.3687 H         1 UNK         0.0600 
     45 H45        -6.3857   -1.1178    3.6387 H         1 UNK         0.0600 
     46 H46        -5.0353   -2.2017    3.3218 H         1 UNK         0.0600 
     47 H47         2.3164   -2.1445   -3.1315 H         1 UNK         0.1420 
     48 H48         1.7862   -1.1362    1.0412 H         1 UNK         0.1260 
     49 H49         4.5832   -1.9183    1.5532 H         1 UNK         0.0600 
     50 H50         5.5198   -2.1412    0.0986 H         1 UNK         0.0600 
     51 H51         4.2645    0.3135    2.5420 H         1 UNK         0.1150 
     52 H52         6.3798   -0.1669   -1.1908 H         1 UNK         0.1150 
     53 H53         5.1050    2.6433    2.7145 H         1 UNK         0.1150 
     54 H54         7.2173    2.1645   -1.0117 H         1 UNK         0.1150 
     55 H55         6.5819    3.5719    0.9399 H         1 UNK         0.1150 
@<TRIPOS>BOND
     1    1    2 1    
     2    1    3 1    
     3    1    4 1    
     4    1   28 1    
     5    2    3 1    
     6    2    5 1    
     7    2    6 1    
     8    3    7 1    
     9    3   29 1    
    10    4    8 2    
    11    4    9 1    
    12    5   30 1    
    13    5   31 1    
    14    5   32 1    
    15    6   33 1    
    16    6   34 1    
    17    6   35 1    
    18    7   10 2    
    19    7   36 1    
    20    9   11 1    
    21   10   12 1    
    22   10   13 1    
    23   11   14 1    
    24   11   37 1    
    25   11   38 1    
    26   12   15 1    
    27   12   39 1    
    28   12   40 1    
    29   13   16 1    
    30   13   41 1    
    31   13   42 1    
    32   14   17 2    
    33   14   18 1    
    34   15   16 1    
    35   15   43 1    
    36   15   44 1    
    37   16   45 1    
    38   16   46 1    
    39   17   19 1    
    40   17   47 1    
    41   18   20 2    
    42   18   48 1    
    43   19   20 1    
    44   20   21 1    
    45   21   22 1    
    46   21   49 1    
    47   21   50 1    
    48   22   23 ar   
    49   22   24 ar   
    50   23   25 ar   
    51   23   51 1    
    52   24   26 ar   
    53   24   52 1    
    54   25   27 ar   
    55   25   53 1    
    56   26   27 ar   
    57   26   54 1    
    58   27   55 1    
@<TRIPOS>SUBSTRUCTURE
     1 UNK         1 GROUP             0       ****    0 ROOT    
