@<TRIPOS>MOLECULE
title: molecule 1
20   20    1
SMALL
USER_CHARGES


@<TRIPOS>ATOM
      1 C1          5.9666   -1.6767   -0.2632 C.ar      1 UNK        -0.1150 
      2 C2          4.6109   -2.2369   -0.6493 C.3       1 UNK        -0.0050 
      3 C3          6.7967   -2.3833    0.6326 C.ar      1 UNK        -0.1150 
      4 C4          6.4014   -0.4437   -0.7937 C.ar      1 UNK        -0.1150 
      5 C5          3.4991   -1.7658    0.2984 C.3       1 UNK         0.1002 
      6 C6          8.0540   -1.8609    0.9939 C.ar      1 UNK        -0.1150 
      7 C7          7.6588    0.0781   -0.4319 C.ar      1 UNK        -0.1150 
      8 N8          2.2350   -2.3200   -0.1050 N.2       1 UNK        -0.4565 
      9 C9          8.4854   -0.6304    0.4616 C.ar      1 UNK        -0.1150 
     10 C10         1.0548   -2.3322    0.1977 C.1       1 UNK         0.2438 
     11 S11        -0.4623   -2.2754    0.6797 S.2       1 UNK        -0.0075 
     12 H12         4.3819   -1.9389   -1.6736 H         1 UNK         0.0600 
     13 H13         4.6645   -3.3266   -0.6523 H         1 UNK         0.0600 
     14 H14         6.4709   -3.3267    1.0459 H         1 UNK         0.1150 
     15 H15         5.7714    0.1056   -1.4780 H         1 UNK         0.1150 
     16 H16         3.7240   -2.0697    1.3216 H         1 UNK         0.0600 
     17 H17         3.4405   -0.6765    0.2964 H         1 UNK         0.0600 
     18 H18         8.6872   -2.4041    1.6798 H         1 UNK         0.1150 
     19 H19         7.9890    1.0222   -0.8397 H         1 UNK         0.1150 
     20 H20         9.4494   -0.2300    0.7389 H         1 UNK         0.1150 
@<TRIPOS>BOND
     1    1    2 1    
     2    1    3 ar   
     3    1    4 ar   
     4    2    5 1    
     5    2   12 1    
     6    2   13 1    
     7    3    6 ar   
     8    3   14 1    
     9    4    7 ar   
    10    4   15 1    
    11    5    8 1    
    12    5   16 1    
    13    5   17 1    
    14    6    9 ar   
    15    6   18 1    
    16    7    9 ar   
    17    7   19 1    
    18    8   10 2    
    19    9   20 1    
    20   10   11 2    
@<TRIPOS>SUBSTRUCTURE
     1 UNK         1 GROUP             0       ****    0 ROOT    
