@<TRIPOS>MOLECULE
title: molecule 1
32   31    1
SMALL
USER_CHARGES


@<TRIPOS>ATOM
      1 C1          2.9851   -1.5725    0.1247 C.2       1 UNK         0.4088 
      2 N2          2.0099   -2.5886   -0.0064 N.am      1 UNK         0.0006 
      3 S3          4.7239   -2.1127    0.2594 S.3       1 UNK        -0.2199 
      4 O4          2.7404   -0.3666    0.1823 O.2       1 UNK        -0.4970 
      5 C5          2.3813   -4.0163   -0.2273 C.3       1 UNK         0.0100 
      6 C6          0.5785   -2.1869    0.0916 C.3       1 UNK         0.0100 
      7 C7          5.5391   -0.4962    0.4194 C.3       1 UNK         0.0475 
      8 C8          2.5359   -4.7910    1.0948 C.3       1 UNK        -0.1800 
      9 C9          1.5306   -4.7667   -1.2692 C.3       1 UNK        -0.1800 
     10 C10        -0.0874   -1.9713   -1.2796 C.3       1 UNK        -0.1800 
     11 C11        -0.2596   -3.0191    1.0798 C.3       1 UNK        -0.1800 
     12 C12         7.0453   -0.6327    0.5317 C.2       1 UNK         0.1200 
     13 C13         7.9061   -0.7105   -0.4993 C.2       1 UNK         0.1200 
     14 Cl14        7.5637   -0.6545    2.1811 Cl        1 UNK        -0.1200 
     15 Cl15        7.4244   -0.6853   -2.1579 Cl        1 UNK        -0.0600 
     16 Cl16        9.6170   -0.8509   -0.3105 Cl        1 UNK        -0.0600 
     17 H17         3.3556   -4.0526   -0.7089 H         1 UNK         0.0600 
     18 H18         0.5388   -1.2006    0.5556 H         1 UNK         0.0600 
     19 H19         5.2937    0.1251   -0.4425 H         1 UNK         0.0600 
     20 H20         5.1521    0.0177    1.3002 H         1 UNK         0.0600 
     21 H21         2.9900   -5.7663    0.9183 H         1 UNK         0.0600 
     22 H22         3.1761   -4.2580    1.7981 H         1 UNK         0.0600 
     23 H23         1.5803   -4.9683    1.5847 H         1 UNK         0.0600 
     24 H24         0.5036   -4.9331   -0.9549 H         1 UNK         0.0600 
     25 H25         1.9568   -5.7508   -1.4667 H         1 UNK         0.0600 
     26 H26         1.5175   -4.2347   -2.2206 H         1 UNK         0.0600 
     27 H27        -1.0278   -1.4313   -1.1662 H         1 UNK         0.0600 
     28 H28         0.5486   -1.3796   -1.9388 H         1 UNK         0.0600 
     29 H29        -0.3227   -2.9050   -1.7859 H         1 UNK         0.0600 
     30 H30        -1.2393   -2.5629    1.2247 H         1 UNK         0.0600 
     31 H31        -0.4368   -4.0385    0.7466 H         1 UNK         0.0600 
     32 H32         0.2195   -3.0614    2.0582 H         1 UNK         0.0600 
@<TRIPOS>BOND
     1    1    2 am   BACKBONE|DICT|INTERRES
     2    1    3 1    
     3    1    4 2    
     4    2    5 1    
     5    2    6 1    
     6    3    7 1    
     7    5    8 1    
     8    5    9 1    
     9    5   17 1    
    10    6   10 1    
    11    6   11 1    
    12    6   18 1    
    13    7   12 1    
    14    7   19 1    
    15    7   20 1    
    16    8   21 1    
    17    8   22 1    
    18    8   23 1    
    19    9   24 1    
    20    9   25 1    
    21    9   26 1    
    22   10   27 1    
    23   10   28 1    
    24   10   29 1    
    25   11   30 1    
    26   11   31 1    
    27   11   32 1    
    28   12   13 2    
    29   12   14 1    
    30   13   15 1    
    31   13   16 1    
@<TRIPOS>SUBSTRUCTURE
     1 UNK         1 GROUP             0       ****    0 ROOT    
