@<TRIPOS>MOLECULE
title: molecule 1
36   36    1
SMALL
USER_CHARGES


@<TRIPOS>ATOM
      1 C1          3.5860   -0.1765    0.5425 C.2       1 UNK         0.4442 
      2 N2          4.6763    0.4364    0.0019 N.am      1 UNK        -0.3977 
      3 N3          3.3631   -1.2977   -0.1935 N.pl3     1 UNK        -0.3818 
      4 S4          2.6871    0.3016    1.8798 S.2       1 UNK        -0.4762 
      5 C5          5.3381    1.6080    0.3702 C.2       1 UNK         0.6995 
      6 C6          2.3237   -2.2564   -0.0427 C.ar      1 UNK         0.1066 
      7 O7          5.0817    2.3767    1.2991 O.2       1 UNK        -0.4970 
      8 O8          6.3547    1.7816   -0.4884 O.3       1 UNK        -0.3300 
      9 C9          2.6505   -3.6161    0.1772 C.ar      1 UNK         0.1066 
     10 C10         0.9709   -1.8804   -0.2070 C.ar      1 UNK        -0.1150 
     11 C11         7.2068    2.9067   -0.3520 C.3       1 UNK         0.1600 
     12 N12         4.0087   -3.9919    0.3682 N.pl3     1 UNK        -0.3818 
     13 C13         1.6169   -4.5723    0.3016 C.ar      1 UNK        -0.1150 
     14 C14        -0.0518   -2.8419   -0.1025 C.ar      1 UNK        -0.1150 
     15 C15         4.7446   -4.8801   -0.3517 C.2       1 UNK         0.4442 
     16 C16         0.2708   -4.1867    0.1576 C.ar      1 UNK        -0.1150 
     17 N17         5.9767   -4.9284    0.2279 N.am      1 UNK        -0.3977 
     18 S18         4.2079   -5.7082   -1.7123 S.2       1 UNK        -0.4762 
     19 C19         7.1137   -5.6628   -0.1100 C.2       1 UNK         0.6995 
     20 O20         7.2683   -6.4563   -1.0406 O.2       1 UNK        -0.4970 
     21 O21         8.0688   -5.3570    0.7817 O.3       1 UNK        -0.3300 
     22 C22         9.3461   -5.9645    0.6812 C.3       1 UNK         0.1600 
     23 H23         5.0863   -0.0102   -0.8042 H         1 UNK         0.2912 
     24 H24         4.0712   -1.5385   -0.8711 H         1 UNK         0.2912 
     25 H25         0.7130   -0.8518   -0.4132 H         1 UNK         0.1150 
     26 H26         7.9717    2.8887   -1.1283 H         1 UNK         0.0300 
     27 H27         6.6437    3.8356   -0.4505 H         1 UNK         0.0300 
     28 H28         7.7060    2.9015    0.6178 H         1 UNK         0.0300 
     29 H29         4.5055   -3.4580    1.0657 H         1 UNK         0.2912 
     30 H30         1.8534   -5.6061    0.5075 H         1 UNK         0.1150 
     31 H31        -1.0841   -2.5470   -0.2209 H         1 UNK         0.1150 
     32 H32        -0.5142   -4.9233    0.2456 H         1 UNK         0.1150 
     33 H33         6.1103   -4.3495    1.0430 H         1 UNK         0.2912 
     34 H34         9.9923   -5.6033    1.4811 H         1 UNK         0.0300 
     35 H35         9.2692   -7.0490    0.7692 H         1 UNK         0.0300 
     36 H36         9.8176   -5.7235   -0.2724 H         1 UNK         0.0300 
@<TRIPOS>BOND
     1    1    2 am   BACKBONE|DICT|INTERRES
     2    1    3 1    
     3    1    4 2    
     4    2    5 am   BACKBONE|DICT|INTERRES
     5    2   23 1    
     6    3    6 1    
     7    3   24 1    
     8    5    7 2    
     9    5    8 1    
    10    6    9 ar   
    11    6   10 ar   
    12    8   11 1    
    13    9   12 1    
    14    9   13 ar   
    15   10   14 ar   
    16   10   25 1    
    17   11   26 1    
    18   11   27 1    
    19   11   28 1    
    20   12   15 1    
    21   12   29 1    
    22   13   16 ar   
    23   13   30 1    
    24   14   16 ar   
    25   14   31 1    
    26   15   17 am   BACKBONE|DICT|INTERRES
    27   15   18 2    
    28   16   32 1    
    29   17   19 am   BACKBONE|DICT|INTERRES
    30   17   33 1    
    31   19   20 2    
    32   19   21 1    
    33   21   22 1    
    34   22   34 1    
    35   22   35 1    
    36   22   36 1    
@<TRIPOS>SUBSTRUCTURE
     1 UNK         1 GROUP             0       ****    0 ROOT    
