@<TRIPOS>MOLECULE
title: molecule 1
22   23    1
SMALL
USER_CHARGES


@<TRIPOS>ATOM
      1 C1          4.0292   -2.1980    0.3820 C.ar      1 UNK         0.0000 
      2 C2          5.5010   -2.1717    0.3822 C.ar      1 UNK         0.0000 
      3 C3          3.2994   -2.9810   -0.5453 C.ar      1 UNK         0.1800 
      4 C4          3.3198   -1.4292    1.3302 C.ar      1 UNK        -0.1150 
      5 C5          6.2308   -1.3739   -0.5325 C.ar      1 UNK         0.1800 
      6 C6          6.2105   -2.9557    1.3178 C.ar      1 UNK        -0.1150 
      7 C7          1.8905   -2.9835   -0.5221 C.ar      1 UNK        -0.1150 
      8 Cl8         4.1156   -3.9527   -1.7194 Cl        1 UNK        -0.1800 
      9 C9          1.9121   -1.4317    1.3536 C.ar      1 UNK        -0.1150 
     10 C10         7.6397   -1.3718   -0.5094 C.ar      1 UNK        -0.1150 
     11 Cl11        5.4145   -0.3833   -1.6907 Cl        1 UNK        -0.1800 
     12 C12         7.6181   -2.9536    1.3412 C.ar      1 UNK        -0.1150 
     13 C13         1.1958   -2.2092    0.4255 C.ar      1 UNK         0.1800 
     14 C14         8.3344   -2.1612    0.4256 C.ar      1 UNK         0.1800 
     15 Cl15       -0.5292   -2.2151    0.4503 Cl        1 UNK        -0.1800 
     16 Cl16       10.0594   -2.1557    0.4504 Cl        1 UNK        -0.1800 
     17 H17         3.8606   -0.8275    2.0462 H         1 UNK         0.1150 
     18 H18         5.6697   -3.5689    2.0241 H         1 UNK         0.1150 
     19 H19         1.3414   -3.5828   -1.2335 H         1 UNK         0.1150 
     20 H20         1.3839   -0.8363    2.0838 H         1 UNK         0.1150 
     21 H21         8.1887   -0.7611   -1.2110 H         1 UNK         0.1150 
     22 H22         8.1465   -3.5607    2.0617 H         1 UNK         0.1150 
@<TRIPOS>BOND
     1    1    2 1    
     2    1    3 ar   
     3    1    4 ar   
     4    2    5 ar   
     5    2    6 ar   
     6    3    7 ar   
     7    3    8 1    
     8    4    9 ar   
     9    4   17 1    
    10    5   10 ar   
    11    5   11 1    
    12    6   12 ar   
    13    6   18 1    
    14    7   13 ar   
    15    7   19 1    
    16    9   13 ar   
    17    9   20 1    
    18   10   14 ar   
    19   10   21 1    
    20   12   14 ar   
    21   12   22 1    
    22   13   15 1    
    23   14   16 1    
@<TRIPOS>SUBSTRUCTURE
     1 UNK         1 GROUP             0       ****    0 ROOT    
