@<TRIPOS>MOLECULE
title: molecule 1
17   17    1
SMALL
USER_CHARGES


@<TRIPOS>ATOM
      1 C1          0.0649    1.6242    0.1902 C.ar      1 UNK         0.1500 
      2 C2         -1.0865    0.9168    0.6040 C.ar      1 UNK         0.0850 
      3 C3          1.2439    0.9242   -0.1434 C.ar      1 UNK         0.1800 
      4 O4          0.0445    2.9894    0.1240 O.3       1 UNK        -0.5850 
      5 C5         -1.0473   -0.4904    0.7040 C.ar      1 UNK         0.1800 
      6 O6         -2.2378    1.5829    0.9402 O.3       1 UNK        -0.2850 
      7 C7          1.2778   -0.4853   -0.0560 C.ar      1 UNK         0.1800 
      8 Cl8         2.6452    1.8028   -0.6543 Cl        1 UNK        -0.1800 
      9 C9          0.1319   -1.1930    0.3709 C.ar      1 UNK         0.1800 
     10 Cl10       -2.4561   -1.3458    1.2303 Cl        1 UNK        -0.1800 
     11 C11        -2.9969    2.0125   -0.1792 C.3       1 UNK         0.1100 
     12 Cl12        2.7242   -1.3433   -0.4666 Cl        1 UNK        -0.1800 
     13 Cl13        0.1723   -2.9198    0.4860 Cl        1 UNK        -0.1800 
     14 H14         0.8709    3.3559   -0.1531 H         1 UNK         0.4350 
     15 H15        -3.9288    2.4610    0.1643 H         1 UNK         0.0300 
     16 H16        -2.4649    2.7598   -0.7684 H         1 UNK         0.0300 
     17 H17        -3.2494    1.1728   -0.8283 H         1 UNK         0.0300 
@<TRIPOS>BOND
     1    1    2 ar   
     2    1    3 ar   
     3    1    4 1    
     4    2    5 ar   
     5    2    6 1    
     6    3    7 ar   
     7    3    8 1    
     8    4   14 1    
     9    5    9 ar   
    10    5   10 1    
    11    6   11 1    
    12    7    9 ar   
    13    7   12 1    
    14    9   13 1    
    15   11   15 1    
    16   11   16 1    
    17   11   17 1    
@<TRIPOS>SUBSTRUCTURE
     1 UNK         1 GROUP             0       ****    0 ROOT    
