@<TRIPOS>MOLECULE
title: molecule 1
35   36    1
SMALL
USER_CHARGES


@<TRIPOS>ATOM
      1 N1          1.2126   -0.7027    0.1102 N.pl3     1 UNK        -0.3850 
      2 C2          0.0419    0.0441    0.1011 C.2       1 UNK         0.3090 
      3 N3          2.4201   -0.1595    0.1097 N.2       1 UNK        -0.2767 
      4 N4         -1.1130   -0.7259    0.1034 N.pl3     1 UNK        -0.3850 
      5 N5          0.0227    1.3329    0.0914 N.2       1 UNK        -0.7850 
      6 C6          3.4115   -0.9771    0.1188 C.2       1 UNK         0.1451 
      7 N7         -2.3305   -0.2045    0.0959 N.2       1 UNK        -0.2767 
      8 C8          4.8096   -0.5203    0.1195 C.ar      1 UNK         0.0631 
      9 C9         -3.3059   -1.0413    0.0992 C.2       1 UNK         0.1451 
     10 C10         5.8440   -1.4818    0.1298 C.ar      1 UNK        -0.1150 
     11 C11         5.1472    0.8540    0.1103 C.ar      1 UNK        -0.1150 
     12 C12        -4.7131   -0.6131    0.0918 C.ar      1 UNK         0.0631 
     13 C13         7.1938   -1.0789    0.1308 C.ar      1 UNK        -0.1150 
     14 C14         6.4973    1.2561    0.1114 C.ar      1 UNK        -0.1150 
     15 C15        -5.7273   -1.5958    0.0961 C.ar      1 UNK        -0.1150 
     16 C16        -5.0792    0.7539    0.0805 C.ar      1 UNK        -0.1150 
     17 C17         7.5214    0.2902    0.1216 C.ar      1 UNK         0.1800 
     18 C18        -7.0853   -1.2212    0.0892 C.ar      1 UNK        -0.1150 
     19 C19        -6.4373    1.1278    0.0737 C.ar      1 UNK        -0.1150 
     20 Cl20        9.1747    0.7833    0.1229 Cl        1 UNK        -0.1800 
     21 C21        -7.4412    0.1408    0.0780 C.ar      1 UNK         0.1800 
     22 Cl22       -9.1044    0.5995    0.0696 Cl        1 UNK        -0.1800 
     23 H23         1.1647   -1.7106    0.1175 H         1 UNK         0.4100 
     24 H24        -1.0449   -1.7330    0.1111 H         1 UNK         0.4100 
     25 H25        -0.9340    1.6569    0.0862 H         1 UNK         0.4260 
     26 H26         3.2313   -2.0540    0.1262 H         1 UNK         0.0685 
     27 H27        -3.1047   -2.1145    0.1078 H         1 UNK         0.0685 
     28 H28         5.6102   -2.5369    0.1369 H         1 UNK         0.1150 
     29 H29         4.3776    1.6126    0.1024 H         1 UNK         0.1150 
     30 H30         7.9775   -1.8222    0.1387 H         1 UNK         0.1150 
     31 H31         6.7454    2.3073    0.1043 H         1 UNK         0.1150 
     32 H32        -5.4719   -2.6459    0.1047 H         1 UNK         0.1150 
     33 H33        -4.3260    1.5286    0.0770 H         1 UNK         0.1150 
     34 H34        -7.8534   -1.9806    0.0926 H         1 UNK         0.1150 
     35 H35        -6.7074    2.1736    0.0651 H         1 UNK         0.1150 
@<TRIPOS>BOND
     1    1    2 1    
     2    1    3 1    
     3    1   23 1    
     4    2    4 1    
     5    2    5 2    
     6    3    6 2    
     7    4    7 1    
     8    4   24 1    
     9    5   25 1    
    10    6    8 1    
    11    6   26 1    
    12    7    9 2    
    13    8   10 ar   
    14    8   11 ar   
    15    9   12 1    
    16    9   27 1    
    17   10   13 ar   
    18   10   28 1    
    19   11   14 ar   
    20   11   29 1    
    21   12   15 ar   
    22   12   16 ar   
    23   13   17 ar   
    24   13   30 1    
    25   14   17 ar   
    26   14   31 1    
    27   15   18 ar   
    28   15   32 1    
    29   16   19 ar   
    30   16   33 1    
    31   17   20 1    
    32   18   21 ar   
    33   18   34 1    
    34   19   21 ar   
    35   19   35 1    
    36   21   22 1    
@<TRIPOS>SUBSTRUCTURE
     1 UNK         1 GROUP             0       ****    0 ROOT    
