@<TRIPOS>MOLECULE
title: molecule 1
17   17    1
SMALL
USER_CHARGES


@<TRIPOS>ATOM
      1 C1          5.1069    0.8612   -0.1448 C.3       1 UNK         0.1100 
      2 O2          3.9715    1.2289    0.6270 O.3       1 UNK        -0.2850 
      3 C3          3.4331    2.4757    0.3995 C.ar      1 UNK         0.0850 
      4 C4          2.0328    2.5464    0.2679 C.ar      1 UNK        -0.1150 
      5 C5          4.1943    3.6721    0.3279 C.ar      1 UNK         0.1500 
      6 C6          1.3890    3.7737    0.0266 C.ar      1 UNK         0.1800 
      7 C7          3.5506    4.9071    0.0822 C.ar      1 UNK         0.1800 
      8 O8          5.5458    3.6599    0.5301 O.3       1 UNK        -0.5850 
      9 Cl9        -0.3304    3.8012   -0.1448 Cl        1 UNK        -0.1800 
     10 C10         2.1475    4.9590   -0.0738 C.ar      1 UNK         0.1800 
     11 Cl11        4.4863    6.3611   -0.0142 Cl        1 UNK        -0.1800 
     12 Cl12        1.3588    6.4703   -0.3749 Cl        1 UNK        -0.1800 
     13 H13         5.0981   -0.2174   -0.3011 H         1 UNK         0.0300 
     14 H14         5.1135    1.3360   -1.1275 H         1 UNK         0.0300 
     15 H15         6.0321    1.1057    0.3769 H         1 UNK         0.0300 
     16 H16         1.4458    1.6424    0.3399 H         1 UNK         0.1150 
     17 H17         5.8734    2.8039    0.7591 H         1 UNK         0.4350 
@<TRIPOS>BOND
     1    1    2 1    
     2    1   13 1    
     3    1   14 1    
     4    1   15 1    
     5    2    3 1    
     6    3    4 ar   
     7    3    5 ar   
     8    4    6 ar   
     9    4   16 1    
    10    5    7 ar   
    11    5    8 1    
    12    6    9 1    
    13    6   10 ar   
    14    7   10 ar   
    15    7   11 1    
    16    8   17 1    
    17   10   12 1    
@<TRIPOS>SUBSTRUCTURE
     1 UNK         1 GROUP             0       ****    0 ROOT    
