@<TRIPOS>MOLECULE
title: molecule 1
24   24    1
SMALL
USER_CHARGES


@<TRIPOS>ATOM
      1 N1          0.0987    0.0491   -0.5161 N.pl3     1 UNK        -0.3818 
      2 C2          1.4295    0.3221   -0.4614 C.2       1 UNK         0.4442 
      3 C3         -0.5593   -1.2007   -0.3650 C.ar      1 UNK         0.1066 
      4 S4          2.6625   -0.7593   -0.1106 S.2       1 UNK        -0.4762 
      5 N5          1.5834    1.6485   -0.7098 N.pl3     1 UNK        -0.4272 
      6 C6         -1.6487   -1.2793    0.5272 C.ar      1 UNK        -0.1150 
      7 C7         -0.2123   -2.3307   -1.1414 C.ar      1 UNK        -0.1150 
      8 C8          2.8510    2.3784   -0.7405 C.3       1 UNK         0.0320 
      9 C9         -2.3577   -2.4872    0.6768 C.ar      1 UNK        -0.1150 
     10 C10        -0.9221   -3.5379   -0.9909 C.ar      1 UNK        -0.1150 
     11 C11         3.4955    2.3319   -2.1323 C.3       1 UNK        -0.1800 
     12 C12        -1.9919   -3.6178   -0.0788 C.ar      1 UNK        -0.1150 
     13 H13        -0.5135    0.8489   -0.5765 H         1 UNK         0.2912 
     14 H14         0.7523    2.1887   -0.8996 H         1 UNK         0.2912 
     15 H15        -1.9400   -0.4153    1.1067 H         1 UNK         0.1150 
     16 H16         0.5946   -2.2771   -1.8575 H         1 UNK         0.1150 
     17 H17         2.6440    3.4154   -0.4755 H         1 UNK         0.0600 
     18 H18         3.5417    2.0074    0.0174 H         1 UNK         0.0600 
     19 H19        -3.1845   -2.5455    1.3693 H         1 UNK         0.1150 
     20 H20        -0.6489   -4.4011   -1.5798 H         1 UNK         0.1150 
     21 H21         4.4175    2.9132   -2.1498 H         1 UNK         0.0600 
     22 H22         3.7434    1.3110   -2.4237 H         1 UNK         0.0600 
     23 H23         2.8284    2.7442   -2.8897 H         1 UNK         0.0600 
     24 H24        -2.5367   -4.5434    0.0352 H         1 UNK         0.1150 
@<TRIPOS>BOND
     1    1    2 1    
     2    1    3 1    
     3    1   13 1    
     4    2    4 2    
     5    2    5 1    
     6    3    6 ar   
     7    3    7 ar   
     8    5    8 1    
     9    5   14 1    
    10    6    9 ar   
    11    6   15 1    
    12    7   10 ar   
    13    7   16 1    
    14    8   11 1    
    15    8   17 1    
    16    8   18 1    
    17    9   12 ar   
    18    9   19 1    
    19   10   12 ar   
    20   10   20 1    
    21   11   21 1    
    22   11   22 1    
    23   11   23 1    
    24   12   24 1    
@<TRIPOS>SUBSTRUCTURE
     1 UNK         1 GROUP             0       ****    0 ROOT    
