@<TRIPOS>MOLECULE
title: molecule 1
26   28    1
SMALL
USER_CHARGES


@<TRIPOS>ATOM
      1 N1          2.0013   -1.0570   -0.0668 N.pl3     1 UNK         0.6325 
      2 C2          2.6787   -2.2253    0.1467 C.ar      1 UNK         0.1225 
      3 C3          2.7649    0.1761   -0.3346 C.3       1 UNK         0.0025 
      4 C4          0.6456   -0.9869   -0.0469 C.ar      1 UNK         0.0075 
      5 C5          4.1666   -2.2183    0.0771 C.ar      1 UNK         0.1225 
      6 C6          1.9331   -3.4005    0.4112 C.ar      1 UNK        -0.2051 
      7 C7          4.0547    0.1935    0.4976 C.3       1 UNK         0.0025 
      8 C8         -0.1278   -2.1340    0.2098 C.ar      1 UNK        -0.2051 
      9 N9          4.8315   -1.0378    0.2610 N.pl3     1 UNK         0.6325 
     10 C10         4.9247   -3.3917   -0.1576 C.ar      1 UNK        -0.2051 
     11 C11         0.5262   -3.3559    0.4448 C.ar      1 UNK        -0.1150 
     12 C12         6.1863   -0.9537    0.2391 C.ar      1 UNK         0.0075 
     13 C13         6.3311   -3.3330   -0.1926 C.ar      1 UNK        -0.1150 
     14 C14         6.9720   -2.0986    0.0114 C.ar      1 UNK        -0.2051 
     15 H15         2.1439    1.0398   -0.0922 H         1 UNK         0.0600 
     16 H16         2.9746    0.1951   -1.4052 H         1 UNK         0.0600 
     17 H17         0.2037   -0.0192   -0.2369 H         1 UNK         0.1150 
     18 H18         2.4251   -4.3436    0.5977 H         1 UNK         0.2051 
     19 H19         3.8447    0.2373    1.5674 H         1 UNK         0.0600 
     20 H20         4.6665    1.0573    0.2334 H         1 UNK         0.0600 
     21 H21        -1.2070   -2.0771    0.2272 H         1 UNK         0.2051 
     22 H22         4.4428   -4.3444   -0.3202 H         1 UNK         0.2051 
     23 H23        -0.0447   -4.2508    0.6474 H         1 UNK         0.1150 
     24 H24         6.6178    0.0231    0.4045 H         1 UNK         0.1150 
     25 H25         6.9115   -4.2266   -0.3726 H         1 UNK         0.1150 
     26 H26         8.0505   -2.0307   -0.0076 H         1 UNK         0.2051 
@<TRIPOS>BOND
     1    1    2 ar   
     2    1    3 1    
     3    1    4 ar   
     4    2    5 1    
     5    2    6 ar   
     6    3    7 1    
     7    3   15 1    
     8    3   16 1    
     9    4    8 ar   
    10    4   17 1    
    11    5    9 ar   
    12    5   10 ar   
    13    6   11 ar   
    14    6   18 1    
    15    7    9 1    
    16    7   19 1    
    17    7   20 1    
    18    8   11 ar   
    19    8   21 1    
    20    9   12 ar   
    21   10   13 ar   
    22   10   22 1    
    23   11   23 1    
    24   12   14 ar   
    25   12   24 1    
    26   13   14 ar   
    27   13   25 1    
    28   14   26 1    
@<TRIPOS>SUBSTRUCTURE
     1 UNK         1 GROUP             0       ****    0 ROOT    
