@<TRIPOS>MOLECULE
title: molecule 1
29   29    1
SMALL
USER_CHARGES


@<TRIPOS>ATOM
      1 S1          6.5115   -3.9479    1.3142 S.2       1 UNK        -0.5895 
      2 P2          6.2544   -2.8020   -0.2689 P.3       1 UNK         1.1541 
      3 O3          4.8488   -2.9844   -1.0714 O.3       1 UNK        -0.2882 
      4 O4          7.3044   -3.0311   -1.4940 O.3       1 UNK        -0.4611 
      5 O5          6.3423   -1.1789   -0.0940 O.3       1 UNK        -0.4611 
      6 C6          3.6266   -2.5609   -0.6291 C.ar      1 UNK         0.5850 
      7 C7          8.6812   -2.7053   -1.3898 C.3       1 UNK         0.1529 
      8 C8          6.3030   -0.4948    1.1514 C.3       1 UNK         0.1529 
      9 N9          2.9997   -3.3742    0.2481 N.ar      1 UNK        -0.6780 
     10 C10         3.0636   -1.3589   -1.1039 C.ar      1 UNK        -0.1120 
     11 C11         9.5249   -3.9418   -1.0584 C.3       1 UNK        -0.1800 
     12 C12         4.9076   -0.4916    1.7901 C.3       1 UNK        -0.1800 
     13 C13         1.7858   -3.0070    0.7138 C.ar      1 UNK         0.6650 
     14 C14         1.7973   -0.9795   -0.6217 C.ar      1 UNK         0.2270 
     15 Cl15        3.9033   -0.3671   -2.2399 Cl        1 UNK        -0.1800 
     16 C16         1.1449   -1.8138    0.3069 C.ar      1 UNK        -0.1120 
     17 Cl17        1.0172   -4.0567    1.8495 Cl        1 UNK        -0.1800 
     18 Cl18       -0.4073   -1.3667    0.9198 Cl        1 UNK        -0.1800 
     19 H19         9.0025   -2.2845   -2.3426 H         1 UNK         0.0600 
     20 H20         8.8357   -1.9306   -0.6376 H         1 UNK         0.0600 
     21 H21         7.0371   -0.9208    1.8355 H         1 UNK         0.0600 
     22 H22         6.6181    0.5333    0.9734 H         1 UNK         0.0600 
     23 H23        10.5860   -3.6926   -1.0472 H         1 UNK         0.0600 
     24 H24         9.2760   -4.3542   -0.0821 H         1 UNK         0.0600 
     25 H25         9.3751   -4.7254   -1.8013 H         1 UNK         0.0600 
     26 H26         4.9194    0.0534    2.7339 H         1 UNK         0.0600 
     27 H27         4.1826   -0.0036    1.1397 H         1 UNK         0.0600 
     28 H28         4.5507   -1.4990    1.9997 H         1 UNK         0.0600 
     29 H29         1.3348   -0.0625   -0.9563 H         1 UNK         0.0650 
@<TRIPOS>BOND
     1    1    2 2    
     2    2    3 1    
     3    2    4 1    
     4    2    5 1    
     5    3    6 1    
     6    4    7 1    
     7    5    8 1    
     8    6    9 ar   
     9    6   10 ar   
    10    7   11 1    
    11    7   19 1    
    12    7   20 1    
    13    8   12 1    
    14    8   21 1    
    15    8   22 1    
    16    9   13 ar   
    17   10   14 ar   
    18   10   15 1    
    19   11   23 1    
    20   11   24 1    
    21   11   25 1    
    22   12   26 1    
    23   12   27 1    
    24   12   28 1    
    25   13   16 ar   
    26   13   17 1    
    27   14   16 ar   
    28   14   29 1    
    29   16   18 1    
@<TRIPOS>SUBSTRUCTURE
     1 UNK         1 GROUP             0       ****    0 ROOT    
