@<TRIPOS>MOLECULE
title: molecule 1
39   39    1
SMALL
USER_CHARGES


@<TRIPOS>ATOM
      1 N1          3.7045   -2.0878   -0.3794 N.ar      1 UNK        -0.8390 
      2 C2          2.5661   -2.7898   -0.3145 C.ar      1 UNK         1.0420 
      3 C3          4.8140   -2.7333   -0.7935 C.ar      1 UNK         0.7640 
      4 N4          2.4420   -4.0842   -0.6375 N.ar      1 UNK        -0.8390 
      5 N5          1.4182   -2.1198    0.1279 N.pl3     1 UNK        -0.6200 
      6 O6          5.9575   -1.9863   -0.8433 O.3       1 UNK        -0.2882 
      7 C7          4.7929   -4.0920   -1.1615 C.ar      1 UNK        -0.6890 
      8 C8          3.5457   -4.7365   -1.0589 C.ar      1 UNK         0.5490 
      9 C9          0.0962   -2.7464    0.0946 C.3       1 UNK         0.0900 
     10 C10         1.4759   -0.7571    0.6588 C.3       1 UNK         0.0900 
     11 P11         7.1822   -2.1198    0.2196 P.3       1 UNK         1.1541 
     12 C12         3.3766   -6.1964   -1.4198 C.3       1 UNK        -0.0650 
     13 C13        -0.2264   -3.4842    1.4004 C.3       1 UNK        -0.1800 
     14 C14         1.2690    0.2979   -0.4354 C.3       1 UNK        -0.1800 
     15 S15         6.7153   -1.8420    2.1122 S.2       1 UNK        -0.5895 
     16 O16         7.8131   -3.5635   -0.1994 O.3       1 UNK        -0.4611 
     17 O17         8.2531   -1.0770   -0.4280 O.3       1 UNK        -0.4611 
     18 C18         8.7155   -4.2662    0.6355 C.3       1 UNK         0.0929 
     19 C19         9.5800   -0.9644    0.0504 C.3       1 UNK         0.0929 
     20 H20         5.6815   -4.6050   -1.4989 H         1 UNK         0.1970 
     21 H21        -0.6561   -1.9756   -0.0759 H         1 UNK         0.0600 
     22 H22         0.0126   -3.4262   -0.7539 H         1 UNK         0.0600 
     23 H23         0.7024   -0.6404    1.4185 H         1 UNK         0.0600 
     24 H24         2.4196   -0.5841    1.1771 H         1 UNK         0.0600 
     25 H25         2.8568   -6.2903   -2.3733 H         1 UNK         0.0600 
     26 H26         4.3431   -6.6936   -1.5048 H         1 UNK         0.0600 
     27 H27         2.7943   -6.7144   -0.6571 H         1 UNK         0.0600 
     28 H28        -1.2195   -3.9311    1.3559 H         1 UNK         0.0600 
     29 H29         0.4893   -4.2851    1.5883 H         1 UNK         0.0600 
     30 H30        -0.2048   -2.8077    2.2551 H         1 UNK         0.0600 
     31 H31         1.3031    1.3025   -0.0140 H         1 UNK         0.0600 
     32 H32         2.0451    0.2323   -1.1985 H         1 UNK         0.0600 
     33 H33         0.3036    0.1766   -0.9271 H         1 UNK         0.0600 
     34 H34         9.2831   -4.9837    0.0435 H         1 UNK         0.0600 
     35 H35         9.4217   -3.5979    1.1279 H         1 UNK         0.0600 
     36 H36         8.1696   -4.8161    1.4024 H         1 UNK         0.0600 
     37 H37        10.0291   -0.0462   -0.3276 H         1 UNK         0.0600 
     38 H38         9.6177   -0.9343    1.1394 H         1 UNK         0.0600 
     39 H39        10.1832   -1.8024   -0.2986 H         1 UNK         0.0600 
@<TRIPOS>BOND
     1    1    2 ar   
     2    1    3 ar   
     3    2    4 ar   
     4    2    5 1    
     5    3    6 1    
     6    3    7 ar   
     7    4    8 ar   
     8    5    9 1    
     9    5   10 1    
    10    6   11 1    
    11    7    8 ar   
    12    7   20 1    
    13    8   12 1    
    14    9   13 1    
    15    9   21 1    
    16    9   22 1    
    17   10   14 1    
    18   10   23 1    
    19   10   24 1    
    20   11   15 2    
    21   11   16 1    
    22   11   17 1    
    23   12   25 1    
    24   12   26 1    
    25   12   27 1    
    26   13   28 1    
    27   13   29 1    
    28   13   30 1    
    29   14   31 1    
    30   14   32 1    
    31   14   33 1    
    32   16   18 1    
    33   17   19 1    
    34   18   34 1    
    35   18   35 1    
    36   18   36 1    
    37   19   37 1    
    38   19   38 1    
    39   19   39 1    
@<TRIPOS>SUBSTRUCTURE
     1 UNK         1 GROUP             0       ****    0 ROOT    
