@<TRIPOS>MOLECULE
title: molecule 1
26   26    1
SMALL
USER_CHARGES


@<TRIPOS>ATOM
      1 S1          8.9878   -1.3920   -1.3294 S.2       1 UNK        -0.5895 
      2 P2          7.2856   -1.8987   -0.4894 P.3       1 UNK         1.1541 
      3 O3          6.0591   -0.8626   -0.7733 O.3       1 UNK        -0.2882 
      4 O4          7.2593   -2.0051    1.1374 O.3       1 UNK        -0.4611 
      5 O5          6.6289   -3.3136   -0.9613 O.3       1 UNK        -0.4611 
      6 C6          4.7568   -0.9339   -0.3402 C.ar      1 UNK         0.1000 
      7 C7          8.3265   -2.5702    1.8771 C.3       1 UNK         0.0929 
      8 C8          7.2724   -4.5543   -0.7434 C.3       1 UNK         0.0929 
      9 C9          3.8816    0.0975   -0.7320 C.ar      1 UNK        -0.1150 
     10 C10         4.2600   -1.9805    0.4701 C.ar      1 UNK        -0.1150 
     11 C11         2.5334    0.0904   -0.3259 C.ar      1 UNK        -0.1150 
     12 C12         2.9118   -1.9889    0.8770 C.ar      1 UNK        -0.1150 
     13 C13         2.0320   -0.9541    0.4843 C.ar      1 UNK         0.0900 
     14 N14         0.6188   -0.9640    0.9115 N.pl3     1 UNK         0.6500 
     15 O15        -0.1053   -0.0439    0.5451 O.co2     1 UNK        -0.3700 
     16 O16         0.2308   -1.8919    1.6141 O.co2     1 UNK        -0.3700 
     17 H17         9.1020   -1.8236    2.0494 H         1 UNK         0.0600 
     18 H18         7.9632   -2.9113    2.8463 H         1 UNK         0.0600 
     19 H19         8.7763   -3.4202    1.3647 H         1 UNK         0.0600 
     20 H20         7.1629   -4.8618    0.2965 H         1 UNK         0.0600 
     21 H21         6.8151   -5.3194   -1.3704 H         1 UNK         0.0600 
     22 H22         8.3341   -4.5090   -0.9865 H         1 UNK         0.0600 
     23 H23         4.2481    0.9032   -1.3510 H         1 UNK         0.1150 
     24 H24         4.8969   -2.7896    0.7923 H         1 UNK         0.1150 
     25 H25         1.8892    0.8969   -0.6443 H         1 UNK         0.1150 
     26 H26         2.5611   -2.8019    1.4958 H         1 UNK         0.1150 
@<TRIPOS>BOND
     1    1    2 2    
     2    2    3 1    
     3    2    4 1    
     4    2    5 1    
     5    3    6 1    
     6    4    7 1    
     7    5    8 1    
     8    6    9 ar   
     9    6   10 ar   
    10    7   17 1    
    11    7   18 1    
    12    7   19 1    
    13    8   20 1    
    14    8   21 1    
    15    8   22 1    
    16    9   11 ar   
    17    9   23 1    
    18   10   12 ar   
    19   10   24 1    
    20   11   13 ar   
    21   11   25 1    
    22   12   13 ar   
    23   12   26 1    
    24   13   14 1    
    25   14   15 2    
    26   14   16 1    
@<TRIPOS>SUBSTRUCTURE
     1 UNK         1 GROUP             0       ****    0 ROOT    
