@<TRIPOS>MOLECULE
title: molecule 1
29   29    1
SMALL
USER_CHARGES


@<TRIPOS>ATOM
      1 C1         -1.8779    0.9646   -0.4547 C.ar      1 UNK         1.0787 
      2 N2         -2.1355   -0.1414    0.2514 N.ar      1 UNK        -0.9262 
      3 N3         -0.6901    1.5329   -0.6812 N.ar      1 UNK        -0.9262 
      4 S4         -3.2639    1.8112   -1.1996 S.3       1 UNK        -0.3200 
      5 C5         -1.0267   -0.6832    0.7568 C.ar      1 UNK         1.1262 
      6 C6          0.3182    0.8696   -0.1075 C.ar      1 UNK         1.1262 
      7 C7         -4.6824    0.7913   -0.7008 C.3       1 UNK        -0.0125 
      8 N8          0.2275   -0.2468    0.6271 N.ar      1 UNK        -0.9262 
      9 N9         -1.1954   -1.8243    1.4978 N.pl3     1 UNK        -0.9200 
     10 N10         1.5645    1.4369   -0.3258 N.pl3     1 UNK        -0.7800 
     11 C11         2.8827    0.9967    0.1389 C.3       1 UNK         0.2000 
     12 C12         3.2352   -0.3988   -0.4179 C.3       1 UNK        -0.1800 
     13 C13         3.9187    2.0009   -0.3987 C.3       1 UNK        -0.1800 
     14 C14         2.9641    1.0040    1.6800 C.3       1 UNK        -0.1800 
     15 H15        -5.6031    1.2141   -1.1023 H         1 UNK         0.0600 
     16 H16        -4.5795   -0.2253   -1.0811 H         1 UNK         0.0600 
     17 H17        -4.7688    0.7553    0.3854 H         1 UNK         0.0600 
     18 H18        -2.1178   -2.2095    1.6360 H         1 UNK         0.3600 
     19 H19        -0.3976   -2.2856    1.9091 H         1 UNK         0.3600 
     20 H20         1.5560    2.2753   -0.8874 H         1 UNK         0.3800 
     21 H21         4.2560   -0.6788   -0.1554 H         1 UNK         0.0600 
     22 H22         2.5855   -1.1804   -0.0263 H         1 UNK         0.0600 
     23 H23         3.1602   -0.4228   -1.5057 H         1 UNK         0.0600 
     24 H24         4.9302    1.7344   -0.0898 H         1 UNK         0.0600 
     25 H25         3.9107    2.0379   -1.4889 H         1 UNK         0.0600 
     26 H26         3.7227    3.0104   -0.0346 H         1 UNK         0.0600 
     27 H27         3.9749    0.7756    2.0198 H         1 UNK         0.0600 
     28 H28         2.6960    1.9795    2.0872 H         1 UNK         0.0600 
     29 H29         2.3061    0.2653    2.1359 H         1 UNK         0.0600 
@<TRIPOS>BOND
     1    1    2 ar   
     2    1    3 ar   
     3    1    4 1    
     4    2    5 ar   
     5    3    6 ar   
     6    4    7 1    
     7    5    8 ar   
     8    5    9 1    
     9    6    8 ar   
    10    6   10 1    
    11    7   15 1    
    12    7   16 1    
    13    7   17 1    
    14    9   18 1    
    15    9   19 1    
    16   10   11 1    
    17   10   20 1    
    18   11   12 1    
    19   11   13 1    
    20   11   14 1    
    21   12   21 1    
    22   12   22 1    
    23   12   23 1    
    24   13   24 1    
    25   13   25 1    
    26   13   26 1    
    27   14   27 1    
    28   14   28 1    
    29   14   29 1    
@<TRIPOS>SUBSTRUCTURE
     1 UNK         1 GROUP             0       ****    0 ROOT    
