@<TRIPOS>MOLECULE
title: molecule 1
14   14    1
SMALL
USER_CHARGES


@<TRIPOS>ATOM
      1 N1          4.3175   -2.2411    0.0849 N.pl3     1 UNK         0.6500 
      2 O2          4.8724   -3.0342    0.8379 O.co2     1 UNK        -0.3700 
      3 O3          4.9098   -1.5036   -0.6954 O.co2     1 UNK        -0.3700 
      4 C4          2.8463   -2.2133    0.0943 C.ar      1 UNK         0.0900 
      5 C5          2.1433   -3.4375    0.0441 C.ar      1 UNK        -0.1150 
      6 C6          2.1195   -0.9952    0.1586 C.ar      1 UNK         0.1800 
      7 C7          0.7369   -3.4578    0.0406 C.ar      1 UNK        -0.1150 
      8 C8          0.7053   -1.0222    0.1537 C.ar      1 UNK         0.1800 
      9 Cl9         2.9348    0.5292    0.2785 Cl        1 UNK        -0.1800 
     10 C10         0.0193   -2.2501    0.0920 C.ar      1 UNK        -0.1150 
     11 Cl11       -0.2108    0.4414    0.2301 Cl        1 UNK        -0.1800 
     12 H12         2.6859   -4.3707   -0.0003 H         1 UNK         0.1150 
     13 H13         0.2092   -4.3993   -0.0029 H         1 UNK         0.1150 
     14 H14        -1.0608   -2.2664    0.0892 H         1 UNK         0.1150 
@<TRIPOS>BOND
     1    1    2 2    
     2    1    3 1    
     3    1    4 1    
     4    4    5 ar   
     5    4    6 ar   
     6    5    7 ar   
     7    5   12 1    
     8    6    8 ar   
     9    6    9 1    
    10    7   10 ar   
    11    7   13 1    
    12    8   10 ar   
    13    8   11 1    
    14   10   14 1    
@<TRIPOS>SUBSTRUCTURE
     1 UNK         1 GROUP             0       ****    0 ROOT    
