@<TRIPOS>MOLECULE
title: molecule 1
25   27    1
SMALL
USER_CHARGES


@<TRIPOS>ATOM
      1 C1          1.8717   -1.4178   -3.3189 C.2       1 UNK         0.1200 
      2 C2          1.4811   -0.1801   -3.6039 C.2       1 UNK         0.1200 
      3 C3          1.7750   -1.5923   -1.8133 C.3       1 UNK         0.2000 
      4 Cl4         2.2305   -2.7474   -4.3606 Cl        1 UNK        -0.1200 
      5 C5          1.1157    0.4968   -2.2944 C.3       1 UNK         0.2000 
      6 Cl6         1.1811    0.5776   -5.1263 Cl        1 UNK        -0.1200 
      7 C7          2.9425   -0.7313   -1.2210 C.3       1 UNK        -0.0600 
      8 Cl8         1.6604   -3.2805   -1.2343 Cl        1 UNK        -0.2000 
      9 C9          0.5148   -0.7257   -1.5513 C.3       1 UNK         0.2716 
     10 C10         2.4783    0.7399   -1.5598 C.3       1 UNK        -0.0600 
     11 Cl11        0.0234    1.9065   -2.4287 Cl        1 UNK        -0.2000 
     12 C12         3.3559   -1.0407    0.2386 C.3       1 UNK         0.1025 
     13 Cl13       -0.9557   -1.3749   -2.3555 Cl        1 UNK        -0.1358 
     14 Cl14        0.1123   -0.4563    0.1701 Cl        1 UNK        -0.1358 
     15 C15         2.4667    1.7769   -0.4102 C.3       1 UNK         0.1025 
     16 O16         4.6056   -0.4528    0.5430 O.3       1 UNK        -0.4375 
     17 O17         3.7840    2.1507   -0.0565 O.3       1 UNK        -0.4375 
     18 S18         4.5385    1.1582    1.1153 S.3       1 UNK         0.8900 
     19 O19         3.7161    1.1957    2.4050 O.2       1 UNK        -0.4600 
     20 H20         3.8354   -0.9507   -1.8101 H         1 UNK         0.0600 
     21 H21         3.1710    1.1547   -2.2950 H         1 UNK         0.0600 
     22 H22         2.6091   -0.7690    0.9816 H         1 UNK         0.0600 
     23 H23         3.5115   -2.1128    0.3490 H         1 UNK         0.0600 
     24 H24         1.9041    1.4651    0.4672 H         1 UNK         0.0600 
     25 H25         1.9944    2.6944   -0.7580 H         1 UNK         0.0600 
@<TRIPOS>BOND
     1    1    2 2    
     2    1    3 1    
     3    1    4 1    
     4    2    5 1    
     5    2    6 1    
     6    3    7 1    
     7    3    8 1    
     8    3    9 1    
     9    5    9 1    
    10    5   10 1    
    11    5   11 1    
    12    7   10 1    
    13    7   12 1    
    14    7   20 1    
    15    9   13 1    
    16    9   14 1    
    17   10   15 1    
    18   10   21 1    
    19   12   16 1    
    20   12   22 1    
    21   12   23 1    
    22   15   17 1    
    23   15   24 1    
    24   15   25 1    
    25   16   18 1    
    26   17   18 1    
    27   18   19 2    
@<TRIPOS>SUBSTRUCTURE
     1 UNK         1 GROUP             0       ****    0 ROOT    
