@<TRIPOS>MOLECULE
title: molecule 1
40   40    1
SMALL
USER_CHARGES


@<TRIPOS>ATOM
      1 S1          6.3694   -3.7205   -2.0562 S.2       1 UNK        -0.5895 
      2 P2          6.5795   -2.7260   -0.3751 P.3       1 UNK         1.1541 
      3 O3          5.3598   -2.8336    0.6984 O.3       1 UNK        -0.2882 
      4 O4          6.7443   -1.1129   -0.5497 O.3       1 UNK        -0.4611 
      5 O5          7.8707   -3.0961    0.5501 O.3       1 UNK        -0.4611 
      6 C6          4.0390   -2.6532    0.3954 C.ar      1 UNK         0.7640 
      7 C7          7.3812   -0.2812    0.4102 C.3       1 UNK         0.1529 
      8 C8          8.0071   -4.3477    1.2034 C.3       1 UNK         0.1529 
      9 N9          3.2438   -3.7255    0.5921 N.ar      1 UNK        -0.8390 
     10 C10         3.5347   -1.4277   -0.0859 C.ar      1 UNK        -0.6890 
     11 C11         6.7042   -0.3081    1.7881 C.3       1 UNK        -0.1800 
     12 C12         8.8644   -5.3180    0.3825 C.3       1 UNK        -0.1800 
     13 C13         1.9480   -3.5791    0.2999 C.ar      1 UNK         0.7270 
     14 C14         2.1531   -1.3929   -0.3595 C.ar      1 UNK         0.5490 
     15 N15         1.3627   -2.4699   -0.1654 N.ar      1 UNK        -0.8390 
     16 C16         1.0559   -4.7956    0.5120 C.3       1 UNK         0.0550 
     17 C17         1.4813   -0.1422   -0.8836 C.3       1 UNK        -0.0650 
     18 C18        -0.0116   -4.5470    1.5890 C.3       1 UNK        -0.1800 
     19 C19         0.4679   -5.3148   -0.8093 C.3       1 UNK        -0.1800 
     20 H20         8.4300   -0.5664    0.4986 H         1 UNK         0.0600 
     21 H21         7.3714    0.7376    0.0227 H         1 UNK         0.0600 
     22 H22         8.4738   -4.1737    2.1730 H         1 UNK         0.0600 
     23 H23         7.0273   -4.7845    1.4015 H         1 UNK         0.0600 
     24 H24         4.1707   -0.5690   -0.2404 H         1 UNK         0.1970 
     25 H25         7.1766    0.4076    2.4610 H         1 UNK         0.0600 
     26 H26         5.6492   -0.0451    1.7133 H         1 UNK         0.0600 
     27 H27         6.7771   -1.2890    2.2572 H         1 UNK         0.0600 
     28 H28         9.0199   -6.2497    0.9266 H         1 UNK         0.0600 
     29 H29         8.3969   -5.5697   -0.5680 H         1 UNK         0.0600 
     30 H30         9.8438   -4.8887    0.1712 H         1 UNK         0.0600 
     31 H31         1.6920   -5.5956    0.8953 H         1 UNK         0.0600 
     32 H32         2.2186    0.5923   -1.2087 H         1 UNK         0.0600 
     33 H33         0.8411   -0.3800   -1.7336 H         1 UNK         0.0600 
     34 H34         0.8669    0.3095   -0.1047 H         1 UNK         0.0600 
     35 H35        -0.6012   -5.4455    1.7720 H         1 UNK         0.0600 
     36 H36         0.4474   -4.2544    2.5338 H         1 UNK         0.0600 
     37 H37        -0.6989   -3.7541    1.2925 H         1 UNK         0.0600 
     38 H38        -0.1175   -6.2204   -0.6496 H         1 UNK         0.0600 
     39 H39        -0.1856   -4.5746   -1.2720 H         1 UNK         0.0600 
     40 H40         1.2585   -5.5531   -1.5215 H         1 UNK         0.0600 
@<TRIPOS>BOND
     1    1    2 2    
     2    2    3 1    
     3    2    4 1    
     4    2    5 1    
     5    3    6 1    
     6    4    7 1    
     7    5    8 1    
     8    6    9 ar   
     9    6   10 ar   
    10    7   11 1    
    11    7   20 1    
    12    7   21 1    
    13    8   12 1    
    14    8   22 1    
    15    8   23 1    
    16    9   13 ar   
    17   10   14 ar   
    18   10   24 1    
    19   11   25 1    
    20   11   26 1    
    21   11   27 1    
    22   12   28 1    
    23   12   29 1    
    24   12   30 1    
    25   13   15 ar   
    26   13   16 1    
    27   14   15 ar   
    28   14   17 1    
    29   16   18 1    
    30   16   19 1    
    31   16   31 1    
    32   17   32 1    
    33   17   33 1    
    34   17   34 1    
    35   18   35 1    
    36   18   36 1    
    37   18   37 1    
    38   19   38 1    
    39   19   39 1    
    40   19   40 1    
@<TRIPOS>SUBSTRUCTURE
     1 UNK         1 GROUP             0       ****    0 ROOT    
