@<TRIPOS>MOLECULE
title: molecule 1
13   14    1
SMALL
USER_CHARGES


@<TRIPOS>ATOM
      1 N1         -0.4868    0.2239    0.0988 N.pl3     1 UNK        -0.3150 
      2 C2         -1.7189    0.8104    0.0862 C.2       1 UNK         0.6062 
      3 C3         -0.2903   -1.1424    0.0929 C.2       1 UNK         0.4890 
      4 C4          0.8019    0.8799    0.1200 C.3       1 UNK        -0.0500 
      5 S5         -2.0272    2.4473    0.0923 S.2       1 UNK        -0.4762 
      6 S6         -3.0137   -0.3723    0.0617 S.3       1 UNK        -0.0075 
      7 S7         -1.8631   -2.0124    0.0667 S.3       1 UNK        -0.0075 
      8 N8          0.9411   -1.5142    0.1069 N.2       1 UNK        -0.5160 
      9 C9          1.7648   -0.3200    0.1252 C.3       1 UNK         0.0370 
     10 H10         0.9166    1.4934    1.0147 H         1 UNK         0.0600 
     11 H11         0.9401    1.5045   -0.7636 H         1 UNK         0.0600 
     12 H12         2.3971   -0.3085    1.0139 H         1 UNK         0.0600 
     13 H13         2.4204   -0.2975   -0.7462 H         1 UNK         0.0600 
@<TRIPOS>BOND
     1    1    2 1    
     2    1    3 1    
     3    1    4 1    
     4    2    5 2    
     5    2    6 1    
     6    3    7 1    
     7    3    8 2    
     8    4    9 1    
     9    4   10 1    
    10    4   11 1    
    11    6    7 1    
    12    8    9 1    
    13    9   12 1    
    14    9   13 1    
@<TRIPOS>SUBSTRUCTURE
     1 UNK         1 GROUP             0       ****    0 ROOT    
