@<TRIPOS>MOLECULE
title: molecule 1
18   17    1
SMALL
USER_CHARGES


@<TRIPOS>ATOM
      1 C1          2.2382   -0.7360   -0.1841 C.3       1 UNK         0.2050 
      2 C2          0.8621   -1.4355   -0.0926 C.3       1 UNK         0.2050 
      3 C3          3.4217   -1.7226   -0.2147 C.3       1 UNK         0.0600 
      4 O4          2.4002    0.1812    0.8828 O.3       1 UNK        -0.6830 
      5 C5         -0.3222   -0.4495   -0.0806 C.3       1 UNK         0.0600 
      6 O6          0.8063   -2.2728    1.0483 O.3       1 UNK        -0.6830 
      7 S7          4.9634   -0.8450   -0.5998 S.3       1 UNK        -0.3350 
      8 S8         -1.8908   -1.3473   -0.2518 S.3       1 UNK        -0.3350 
      9 H9          2.2535   -0.1553   -1.1076 H         1 UNK         0.0600 
     10 H10         0.7604   -2.0812   -0.9661 H         1 UNK         0.0600 
     11 H11         3.5300   -2.2398    0.7394 H         1 UNK         0.0600 
     12 H12         3.2619   -2.4838   -0.9788 H         1 UNK         0.0600 
     13 H13         3.2532    0.5809    0.8023 H         1 UNK         0.4180 
     14 H14        -0.3404    0.1355    0.8397 H         1 UNK         0.0600 
     15 H15        -0.2391    0.2540   -0.9094 H         1 UNK         0.0600 
     16 H16        -0.0491   -2.6743    1.0790 H         1 UNK         0.4180 
     17 H17         5.7518   -1.9231   -0.5626 H         1 UNK         0.1550 
     18 H18        -2.6757   -0.2666   -0.2169 H         1 UNK         0.1550 
@<TRIPOS>BOND
     1    1    2 1    
     2    1    3 1    
     3    1    4 1    
     4    1    9 1    
     5    2    5 1    
     6    2    6 1    
     7    2   10 1    
     8    3    7 1    
     9    3   11 1    
    10    3   12 1    
    11    4   13 1    
    12    5    8 1    
    13    5   14 1    
    14    5   15 1    
    15    6   16 1    
    16    7   17 1    
    17    8   18 1    
@<TRIPOS>SUBSTRUCTURE
     1 UNK         1 GROUP             0       ****    0 ROOT    
