@<TRIPOS>MOLECULE
title: molecule 1
30   31    1
SMALL
USER_CHARGES


@<TRIPOS>ATOM
      1 C1          4.0404   -3.7511   -0.5292 C.2       1 UNK         0.7455 
      2 N2          4.9330   -2.8101   -0.1545 N.am      1 UNK        -0.5362 
      3 C3          2.6104   -3.4340   -0.1833 C.ar      1 UNK        -0.1150 
      4 O4          4.3224   -4.8214   -1.0725 O.2       1 UNK        -0.5080 
      5 C5          6.2706   -2.8325   -0.3124 C.2       1 UNK         0.7530 
      6 C6          1.7647   -4.4455    0.3354 C.ar      1 UNK         0.2200 
      7 C7          2.0748   -2.1393   -0.4036 C.ar      1 UNK         0.2200 
      8 N8          6.8218   -1.7040    0.1704 N.am      1 UNK        -0.5203 
      9 O9          6.9060   -3.7461   -0.8420 O.2       1 UNK        -0.5080 
     10 F10         2.2357   -5.6962    0.5614 F         1 UNK        -0.2200 
     11 C11         0.4192   -4.1626    0.6411 C.ar      1 UNK        -0.1150 
     12 F12         2.8393   -1.1468   -0.9218 F         1 UNK        -0.2200 
     13 C13         0.7285   -1.8637   -0.0944 C.ar      1 UNK        -0.1150 
     14 C14         8.1950   -1.3392    0.2173 C.ar      1 UNK         0.1066 
     15 C15        -0.0998   -2.8729    0.4285 C.ar      1 UNK        -0.1150 
     16 C16         8.4960    0.0379    0.2774 C.ar      1 UNK        -0.1150 
     17 C17         9.2537   -2.2796    0.2523 C.ar      1 UNK        -0.1150 
     18 C18         9.8331    0.4753    0.3439 C.ar      1 UNK        -0.1150 
     19 C19        10.5905   -1.8405    0.3194 C.ar      1 UNK        -0.1150 
     20 C20        10.8815   -0.4638    0.3621 C.ar      1 UNK         0.1800 
     21 Cl21       12.5197    0.0712    0.4446 Cl        1 UNK        -0.1800 
     22 H22         4.5438   -1.9915    0.2882 H         1 UNK         0.2912 
     23 H23         6.1797   -0.9934    0.4878 H         1 UNK         0.2912 
     24 H24        -0.2158   -4.9393    1.0412 H         1 UNK         0.1150 
     25 H25         0.3294   -0.8744   -0.2641 H         1 UNK         0.1150 
     26 H26        -1.1321   -2.6589    0.6635 H         1 UNK         0.1150 
     27 H27         7.7004    0.7687    0.2663 H         1 UNK         0.1150 
     28 H28         9.0643   -3.3419    0.2426 H         1 UNK         0.1150 
     29 H29        10.0528    1.5322    0.3824 H         1 UNK         0.1150 
     30 H30        11.3927   -2.5633    0.3434 H         1 UNK         0.1150 
@<TRIPOS>BOND
     1    1    2 am   BACKBONE|DICT|INTERRES
     2    1    3 1    
     3    1    4 2    
     4    2    5 am   BACKBONE|DICT|INTERRES
     5    2   22 1    
     6    3    6 ar   
     7    3    7 ar   
     8    5    8 am   BACKBONE|DICT|INTERRES
     9    5    9 2    
    10    6   10 1    
    11    6   11 ar   
    12    7   12 1    
    13    7   13 ar   
    14    8   14 1    
    15    8   23 1    
    16   11   15 ar   
    17   11   24 1    
    18   13   15 ar   
    19   13   25 1    
    20   14   16 ar   
    21   14   17 ar   
    22   15   26 1    
    23   16   18 ar   
    24   16   27 1    
    25   17   19 ar   
    26   17   28 1    
    27   18   20 ar   
    28   18   29 1    
    29   19   20 ar   
    30   19   30 1    
    31   20   21 1    
@<TRIPOS>SUBSTRUCTURE
     1 UNK         1 GROUP             0       ****    0 ROOT    
