@<TRIPOS>MOLECULE
title: molecule 1
28   29    1
SMALL
USER_CHARGES


@<TRIPOS>ATOM
      1 C1          0.0912    1.9585    0.5515 C.3       1 UNK         0.1700 
      2 C2          0.0278    2.5248    1.9825 C.3       1 UNK        -0.1800 
      3 C3          1.3645    1.1631    0.2815 C.ar      1 UNK        -0.1150 
      4 C4         -1.1564    1.1693    0.1669 C.ar      1 UNK        -0.1150 
      5 C5          1.7841    0.1352    1.1564 C.ar      1 UNK        -0.1150 
      6 C6          2.1365    1.4476   -0.8665 C.ar      1 UNK        -0.1150 
      7 C7         -1.8166    1.4541   -1.0488 C.ar      1 UNK        -0.1150 
      8 C8         -1.6618    0.1471    1.0022 C.ar      1 UNK        -0.1150 
      9 C9          2.9596   -0.5928    0.8886 C.ar      1 UNK        -0.1150 
     10 C10         3.3121    0.7196   -1.1343 C.ar      1 UNK        -0.1150 
     11 C11        -2.9666    0.7320   -1.4225 C.ar      1 UNK        -0.1150 
     12 C12        -2.8117   -0.5751    0.6285 C.ar      1 UNK        -0.1150 
     13 C13         3.7247   -0.3009   -0.2566 C.ar      1 UNK         0.1800 
     14 C14        -3.4653   -0.2828   -0.5837 C.ar      1 UNK         0.1800 
     15 Cl15        5.1646   -1.1931   -0.5845 Cl        1 UNK        -0.1800 
     16 Cl16       -4.8739   -1.1679   -1.0414 Cl        1 UNK        -0.1800 
     17 H17         0.1229    2.8312   -0.1026 H         1 UNK         0.0600 
     18 H18        -0.8565    3.1491    2.1129 H         1 UNK         0.0600 
     19 H19        -0.0080    1.7446    2.7420 H         1 UNK         0.0600 
     20 H20         0.8996    3.1453    2.1921 H         1 UNK         0.0600 
     21 H21         1.2079   -0.1049    2.0371 H         1 UNK         0.1150 
     22 H22         1.8297    2.2256   -1.5502 H         1 UNK         0.1150 
     23 H23        -1.4428    2.2278   -1.7034 H         1 UNK         0.1150 
     24 H24        -1.1715   -0.0933    1.9333 H         1 UNK         0.1150 
     25 H25         3.2726   -1.3765    1.5628 H         1 UNK         0.1150 
     26 H26         3.8960    0.9447   -2.0147 H         1 UNK         0.1150 
     27 H27        -3.4647    0.9572   -2.3540 H         1 UNK         0.1150 
     28 H28        -3.1908   -1.3545    1.2730 H         1 UNK         0.1150 
@<TRIPOS>BOND
     1    1    2 1    
     2    1    3 1    
     3    1    4 1    
     4    1   17 1    
     5    2   18 1    
     6    2   19 1    
     7    2   20 1    
     8    3    5 ar   
     9    3    6 ar   
    10    4    7 ar   
    11    4    8 ar   
    12    5    9 ar   
    13    5   21 1    
    14    6   10 ar   
    15    6   22 1    
    16    7   11 ar   
    17    7   23 1    
    18    8   12 ar   
    19    8   24 1    
    20    9   13 ar   
    21    9   25 1    
    22   10   13 ar   
    23   10   26 1    
    24   11   14 ar   
    25   11   27 1    
    26   12   14 ar   
    27   12   28 1    
    28   13   15 1    
    29   14   16 1    
@<TRIPOS>SUBSTRUCTURE
     1 UNK         1 GROUP             0       ****    0 ROOT    
