@<TRIPOS>MOLECULE
title: molecule 1
16   16    1
SMALL
USER_CHARGES


@<TRIPOS>ATOM
      1 C1          7.2443    2.2021    0.1554 C.1       1 UNK         0.2438 
      2 N2          6.0633    2.5072    0.1828 N.2       1 UNK        -0.3151 
      3 S3          8.7768    1.7736    0.2299 S.2       1 UNK        -0.0075 
      4 C4          4.8494    1.8244    0.1318 C.ar      1 UNK         0.0788 
      5 C5          3.6492    2.5609    0.1935 C.ar      1 UNK        -0.1150 
      6 C6          4.7881    0.4165    0.0202 C.ar      1 UNK        -0.1150 
      7 C7          2.4041    1.9045    0.1447 C.ar      1 UNK        -0.1150 
      8 C8          3.5431   -0.2400   -0.0285 C.ar      1 UNK        -0.1150 
      9 C9          2.3428    0.4966    0.0332 C.ar      1 UNK         0.0788 
     10 N10         1.1290   -0.1863   -0.0177 N.2       1 UNK        -0.3151 
     11 C11        -0.0520    0.1189    0.0098 C.1       1 UNK         0.2438 
     12 S12        -1.5839    0.5298    0.1591 S.2       1 UNK        -0.0075 
     13 H13         3.6797    3.6375    0.2788 H         1 UNK         0.1150 
     14 H14         5.6937   -0.1705   -0.0287 H         1 UNK         0.1150 
     15 H15         1.4986    2.4914    0.1938 H         1 UNK         0.1150 
     16 H16         3.5126   -1.3165   -0.1138 H         1 UNK         0.1150 
@<TRIPOS>BOND
     1    1    2 2    
     2    1    3 2    
     3    2    4 1    
     4    4    5 ar   
     5    4    6 ar   
     6    5    7 ar   
     7    5   13 1    
     8    6    8 ar   
     9    6   14 1    
    10    7    9 ar   
    11    7   15 1    
    12    8    9 ar   
    13    8   16 1    
    14    9   10 1    
    15   10   11 2    
    16   11   12 2    
@<TRIPOS>SUBSTRUCTURE
     1 UNK         1 GROUP             0       ****    0 ROOT    
