@<TRIPOS>MOLECULE
title: molecule 1
56   55    1
SMALL
USER_CHARGES


@<TRIPOS>ATOM
      1 C1         13.2352   -1.2409   -0.4822 C.2       1 UNK         0.5100 
      2 C2         11.8803   -1.4095    0.0888 C.2       1 UNK        -0.1150 
      3 O3         13.5712   -1.5268   -1.6325 O.2       1 UNK        -0.4300 
      4 O4         14.0662   -0.7059    0.4362 O.3       1 UNK        -0.3300 
      5 C5         10.8089   -1.9746   -0.5194 C.2       1 UNK         0.0000 
      6 C6         15.4252   -0.4219    0.1218 C.3       1 UNK         0.2200 
      7 C7          9.5702   -2.0034    0.2534 C.2       1 UNK        -0.1150 
      8 C8         10.8790   -2.5660   -1.9265 C.3       1 UNK        -0.1800 
      9 C9         15.8506    0.8050    0.9372 C.3       1 UNK        -0.1800 
     10 C10        16.2953   -1.6500    0.4301 C.3       1 UNK        -0.1800 
     11 C11         8.3564   -2.3740   -0.1953 C.2       1 UNK        -0.1150 
     12 C12         7.1041   -2.3919    0.6606 C.3       1 UNK        -0.1200 
     13 C13         5.9815   -1.4893    0.1080 C.3       1 UNK        -0.0600 
     14 C14         4.6699   -1.7303    0.8862 C.3       1 UNK        -0.1200 
     15 C15         6.3974   -0.0051    0.1264 C.3       1 UNK        -0.1800 
     16 C16         3.4260   -1.0885    0.2472 C.3       1 UNK        -0.1200 
     17 C17         2.1309   -1.4475    1.0004 C.3       1 UNK        -0.1200 
     18 C18         0.8247   -0.9110    0.3589 C.3       1 UNK         0.2000 
     19 O19         0.7184   -1.2889   -1.0175 O.3       1 UNK        -0.4000 
     20 C20        -0.4021   -1.4103    1.1506 C.3       1 UNK        -0.1800 
     21 C21         0.8033    0.6286    0.3469 C.3       1 UNK        -0.1800 
     22 C22         0.6463   -2.6757   -1.3302 C.3       1 UNK         0.1100 
     23 H23        11.7566   -1.0280    1.0931 H         1 UNK         0.1150 
     24 H24        15.5229   -0.1700   -0.9354 H         1 UNK         0.0300 
     25 H25         9.6238   -1.7029    1.2904 H         1 UNK         0.1150 
     26 H26        10.0017   -3.1484   -2.1968 H         1 UNK         0.0600 
     27 H27        10.9951   -1.7727   -2.6654 H         1 UNK         0.0600 
     28 H28        11.7247   -3.2482   -2.0140 H         1 UNK         0.0600 
     29 H29        16.8850    1.0765    0.7254 H         1 UNK         0.0600 
     30 H30        15.2271    1.6670    0.6987 H         1 UNK         0.0600 
     31 H31        15.7662    0.6182    2.0083 H         1 UNK         0.0600 
     32 H32        17.3443   -1.4505    0.2106 H         1 UNK         0.0600 
     33 H33        16.2214   -1.9337    1.4804 H         1 UNK         0.0600 
     34 H34        15.9918   -2.5086   -0.1694 H         1 UNK         0.0600 
     35 H35         8.2064   -2.6817   -1.2177 H         1 UNK         0.1150 
     36 H36         6.7619   -3.4264    0.7035 H         1 UNK         0.0600 
     37 H37         7.3463   -2.1051    1.6849 H         1 UNK         0.0600 
     38 H38         5.8081   -1.7784   -0.9297 H         1 UNK         0.0600 
     39 H39         4.4961   -2.8049    0.9564 H         1 UNK         0.0600 
     40 H40         4.7804   -1.3770    1.9123 H         1 UNK         0.0600 
     41 H41         5.6437    0.6314   -0.3357 H         1 UNK         0.0600 
     42 H42         6.5537    0.3490    1.1457 H         1 UNK         0.0600 
     43 H43         7.3233    0.1585   -0.4252 H         1 UNK         0.0600 
     44 H44         3.5453   -0.0066    0.2275 H         1 UNK         0.0600 
     45 H45         3.3489   -1.4121   -0.7910 H         1 UNK         0.0600 
     46 H46         2.0691   -2.5313    1.1008 H         1 UNK         0.0600 
     47 H47         2.2045   -1.0720    2.0219 H         1 UNK         0.0600 
     48 H48        -1.3329   -1.1082    0.6696 H         1 UNK         0.0600 
     49 H49        -0.4150   -2.4956    1.2489 H         1 UNK         0.0600 
     50 H50        -0.4071   -1.0019    2.1618 H         1 UNK         0.0600 
     51 H51        -0.1435    1.0038   -0.0429 H         1 UNK         0.0600 
     52 H52         0.9311    1.0370    1.3499 H         1 UNK         0.0600 
     53 H53         1.5903    1.0410   -0.2839 H         1 UNK         0.0600 
     54 H54         0.6003   -2.7888   -2.4131 H         1 UNK         0.0300 
     55 H55         1.5226   -3.2246   -0.9871 H         1 UNK         0.0300 
     56 H56        -0.2484   -3.1440   -0.9214 H         1 UNK         0.0300 
@<TRIPOS>BOND
     1    1    2 1    
     2    1    3 2    
     3    1    4 1    
     4    2    5 2    
     5    2   23 1    
     6    4    6 1    
     7    5    7 1    
     8    5    8 1    
     9    6    9 1    
    10    6   10 1    
    11    6   24 1    
    12    7   11 2    
    13    7   25 1    
    14    8   26 1    
    15    8   27 1    
    16    8   28 1    
    17    9   29 1    
    18    9   30 1    
    19    9   31 1    
    20   10   32 1    
    21   10   33 1    
    22   10   34 1    
    23   11   12 1    
    24   11   35 1    
    25   12   13 1    
    26   12   36 1    
    27   12   37 1    
    28   13   14 1    
    29   13   15 1    
    30   13   38 1    
    31   14   16 1    
    32   14   39 1    
    33   14   40 1    
    34   15   41 1    
    35   15   42 1    
    36   15   43 1    
    37   16   17 1    
    38   16   44 1    
    39   16   45 1    
    40   17   18 1    
    41   17   46 1    
    42   17   47 1    
    43   18   19 1    
    44   18   20 1    
    45   18   21 1    
    46   19   22 1    
    47   20   48 1    
    48   20   49 1    
    49   20   50 1    
    50   21   51 1    
    51   21   52 1    
    52   21   53 1    
    53   22   54 1    
    54   22   55 1    
    55   22   56 1    
@<TRIPOS>SUBSTRUCTURE
     1 UNK         1 GROUP             0       ****    0 ROOT    
