@<TRIPOS>MOLECULE
title: molecule 1
21   21    1
SMALL
USER_CHARGES


@<TRIPOS>ATOM
      1 C1         -0.1765    0.1893    0.3359 C.3       1 UNK        -0.1303 
      2 N2         -1.2178    0.0281   -0.6868 N.pl3     1 UNK        -0.2572 
      3 C3         -1.4906    1.0616   -1.5521 C.2       1 UNK         0.5542 
      4 C4         -1.8400   -1.2578   -0.7501 C.ar      1 UNK         0.0850 
      5 N5         -2.2914    0.7020   -2.5782 N.pl3     1 UNK        -0.7839 
      6 S6         -0.9071    2.6231   -1.4742 S.2       1 UNK        -0.4762 
      7 C7         -3.2412   -1.3932   -0.6102 C.ar      1 UNK        -0.1150 
      8 C8         -1.0453   -2.4140   -0.9158 C.ar      1 UNK        -0.1150 
      9 C9         -3.8392   -2.6674   -0.6568 C.ar      1 UNK        -0.1150 
     10 C10        -1.6454   -3.6874   -0.9624 C.ar      1 UNK        -0.1150 
     11 C11        -3.0419   -3.8142   -0.8350 C.ar      1 UNK        -0.1150 
     12 H12        -0.0853   -0.7002    0.9602 H         1 UNK         0.0600 
     13 H13         0.7952    0.3707   -0.1253 H         1 UNK         0.0600 
     14 H14        -0.4072    1.0213    1.0025 H         1 UNK         0.0600 
     15 H15        -2.5374    1.3889   -3.2758 H         1 UNK         0.4142 
     16 H16        -2.6270   -0.2486   -2.6346 H         1 UNK         0.4142 
     17 H17        -3.8605   -0.5203   -0.4622 H         1 UNK         0.1150 
     18 H18         0.0271   -2.3275   -1.0149 H         1 UNK         0.1150 
     19 H19        -4.9097   -2.7654   -0.5519 H         1 UNK         0.1150 
     20 H20        -1.0335   -4.5675   -1.0947 H         1 UNK         0.1150 
     21 H21        -3.5010   -4.7913   -0.8696 H         1 UNK         0.1150 
@<TRIPOS>BOND
     1    1    2 1    
     2    1   12 1    
     3    1   13 1    
     4    1   14 1    
     5    2    3 1    
     6    2    4 1    
     7    3    5 1    
     8    3    6 2    
     9    4    7 ar   
    10    4    8 ar   
    11    5   15 1    
    12    5   16 1    
    13    7    9 ar   
    14    7   17 1    
    15    8   10 ar   
    16    8   18 1    
    17    9   11 ar   
    18    9   19 1    
    19   10   11 ar   
    20   10   20 1    
    21   11   21 1    
@<TRIPOS>SUBSTRUCTURE
     1 UNK         1 GROUP             0       ****    0 ROOT    
