@<TRIPOS>MOLECULE
title: molecule 1
23   23    1
SMALL
USER_CHARGES


@<TRIPOS>ATOM
      1 C1         -0.2808    0.4092    0.1470 C.3       1 UNK        -0.1800 
      2 C2          1.2290    0.3099    0.1557 C.2       1 UNK        -0.1150 
      3 C3          1.9093   -0.8471    0.0631 C.2       1 UNK        -0.1150 
      4 C4          3.3746   -1.0082    0.0659 C.ar      1 UNK         0.0000 
      5 C5          3.9136   -2.3073   -0.0406 C.ar      1 UNK        -0.1150 
      6 C6          4.2631    0.0862    0.1711 C.ar      1 UNK        -0.1150 
      7 C7          5.3068   -2.5103   -0.0422 C.ar      1 UNK        -0.1150 
      8 C8          5.6573   -0.1159    0.1696 C.ar      1 UNK        -0.1150 
      9 C9          6.1949   -1.4221    0.0624 C.ar      1 UNK         0.0850 
     10 O10         7.5432   -1.7085    0.0530 O.3       1 UNK        -0.2850 
     11 C11         8.4569   -0.6264    0.1575 C.3       1 UNK         0.1100 
     12 H12        -0.6112    1.0231   -0.6910 H         1 UNK         0.0600 
     13 H13        -0.7447   -0.5736    0.0563 H         1 UNK         0.0600 
     14 H14        -0.6315    0.8702    1.0704 H         1 UNK         0.0600 
     15 H15         1.7486    1.2514    0.2434 H         1 UNK         0.1150 
     16 H16         1.3387   -1.7608   -0.0228 H         1 UNK         0.1150 
     17 H17         3.2575   -3.1617   -0.1223 H         1 UNK         0.1150 
     18 H18         3.8939    1.0965    0.2546 H         1 UNK         0.1150 
     19 H19         5.6984   -3.5136   -0.1248 H         1 UNK         0.1150 
     20 H20         6.2944    0.7513    0.2522 H         1 UNK         0.1150 
     21 H21         9.4758   -1.0127    0.1356 H         1 UNK         0.0300 
     22 H22         8.3498    0.0679   -0.6771 H         1 UNK         0.0300 
     23 H23         8.3295   -0.0861    1.0965 H         1 UNK         0.0300 
@<TRIPOS>BOND
     1    1    2 1    
     2    1   12 1    
     3    1   13 1    
     4    1   14 1    
     5    2    3 2    
     6    2   15 1    
     7    3    4 1    
     8    3   16 1    
     9    4    5 ar   
    10    4    6 ar   
    11    5    7 ar   
    12    5   17 1    
    13    6    8 ar   
    14    6   18 1    
    15    7    9 ar   
    16    7   19 1    
    17    8    9 ar   
    18    8   20 1    
    19    9   10 1    
    20   10   11 1    
    21   11   21 1    
    22   11   22 1    
    23   11   23 1    
@<TRIPOS>SUBSTRUCTURE
     1 UNK         1 GROUP             0       ****    0 ROOT    
