@<TRIPOS>MOLECULE
title: molecule 1
28   29    1
SMALL
USER_CHARGES


@<TRIPOS>ATOM
      1 Cl1         4.3321   -1.6690   -2.4339 Cl        1 UNK         0.0120 
      2 C2          4.6201   -1.0812   -0.7716 C.3       1 UNK        -0.2944 
      3 C3          4.6825   -2.2299    0.2818 C.3       1 UNK         0.4284 
      4 Cl4         3.2846    0.0230   -0.3441 Cl        1 UNK         0.0120 
      5 Cl5         6.1355   -0.1375   -0.7343 Cl        1 UNK         0.0120 
      6 C6          3.4407   -3.1246    0.3066 C.ar      1 UNK        -0.1150 
      7 C7          5.9876   -3.0366    0.3399 C.ar      1 UNK        -0.1150 
      8 C8          3.2944   -4.2054   -0.5932 C.ar      1 UNK        -0.1150 
      9 C9          2.4202   -2.8803    1.2532 C.ar      1 UNK        -0.1150 
     10 C10         6.5722   -3.2980    1.6005 C.ar      1 UNK        -0.1150 
     11 C11         6.6240   -3.5391   -0.8199 C.ar      1 UNK        -0.1150 
     12 C12         2.1472   -5.0211   -0.5513 C.ar      1 UNK        -0.1150 
     13 C13         1.2725   -3.6954    1.2958 C.ar      1 UNK        -0.1150 
     14 C14         7.7674   -4.0356    1.7017 C.ar      1 UNK        -0.1150 
     15 C15         7.8194   -4.2770   -0.7201 C.ar      1 UNK        -0.1150 
     16 C16         1.1350   -4.7666    0.3931 C.ar      1 UNK         0.1800 
     17 C17         8.3931   -4.5251    0.5404 C.ar      1 UNK         0.1800 
     18 Cl18       -0.2707   -5.7655    0.4444 Cl        1 UNK        -0.1800 
     19 Cl19        9.8575   -5.4292    0.6620 Cl        1 UNK        -0.1800 
     20 H20         4.6724   -1.7020    1.2368 H         1 UNK         0.0600 
     21 H21         4.0581   -4.4160   -1.3262 H         1 UNK         0.1150 
     22 H22         2.5103   -2.0615    1.9521 H         1 UNK         0.1150 
     23 H23         6.1045   -2.9335    2.5035 H         1 UNK         0.1150 
     24 H24         6.2083   -3.3732   -1.7996 H         1 UNK         0.1150 
     25 H25         2.0452   -5.8424   -1.2453 H         1 UNK         0.1150 
     26 H26         0.4981   -3.4974    2.0222 H         1 UNK         0.1150 
     27 H27         8.2025   -4.2259    2.6718 H         1 UNK         0.1150 
     28 H28         8.2947   -4.6538   -1.6138 H         1 UNK         0.1150 
@<TRIPOS>BOND
     1    1    2 1    
     2    2    3 1    
     3    2    4 1    
     4    2    5 1    
     5    3    6 1    
     6    3    7 1    
     7    3   20 1    
     8    6    8 ar   
     9    6    9 ar   
    10    7   10 ar   
    11    7   11 ar   
    12    8   12 ar   
    13    8   21 1    
    14    9   13 ar   
    15    9   22 1    
    16   10   14 ar   
    17   10   23 1    
    18   11   15 ar   
    19   11   24 1    
    20   12   16 ar   
    21   12   25 1    
    22   13   16 ar   
    23   13   26 1    
    24   14   17 ar   
    25   14   27 1    
    26   15   17 ar   
    27   15   28 1    
    28   16   18 1    
    29   17   19 1    
@<TRIPOS>SUBSTRUCTURE
     1 UNK         1 GROUP             0       ****    0 ROOT    
