@<TRIPOS>MOLECULE
title: molecule 1
11   11    1
SMALL
USER_CHARGES


@<TRIPOS>ATOM
      1 C1          2.8910    1.7413    0.0738 C.2       1 UNK         0.6225 
      2 O2          3.8353    2.5272    0.0491 O.2       1 UNK        -0.5000 
      3 N3          1.5952    2.0451    0.0850 N.am      1 UNK        -0.3977 
      4 C4          3.0233    0.2309    0.0968 C.3       1 UNK         0.0025 
      5 C5          0.7891    0.9653    0.1128 C.2       1 UNK         0.4442 
      6 N6          1.6100   -0.1077    0.1200 N.pl3     1 UNK        -0.3977 
      7 S7         -0.8697    0.9541    0.1338 S.2       1 UNK        -0.4762 
      8 H8          1.2327    2.9871    0.0742 H         1 UNK         0.2912 
      9 H9          3.5390   -0.1171    0.9922 H         1 UNK         0.0600 
     10 H10         3.5165   -0.1464   -0.7995 H         1 UNK         0.0600 
     11 H11         1.2651   -1.0568    0.1398 H         1 UNK         0.2912 
@<TRIPOS>BOND
     1    1    2 2    
     2    1    3 am   BACKBONE|DICT|INTERRES
     3    1    4 1    
     4    3    5 am   BACKBONE|DICT|INTERRES
     5    3    8 1    
     6    4    6 1    
     7    4    9 1    
     8    4   10 1    
     9    5    6 1    
    10    5    7 2    
    11    6   11 1    
@<TRIPOS>SUBSTRUCTURE
     1 UNK         1 GROUP             0       ****    0 ROOT    
