@<TRIPOS>MOLECULE
title: molecule 1
3   2    1
SMALL
USER_CHARGES


@<TRIPOS>ATOM
      1 N1          2.7043    0.1463    0.1627 N.1       1 UNK        -0.1225 
      2 C2          1.5481    0.1476    0.1199 C.1       1 UNK         0.2750 
      3 Cl3        -0.1067    0.1707    0.0390 Cl        1 UNK        -0.1525 
@<TRIPOS>BOND
     1    1    2 3    
     2    2    3 1    
@<TRIPOS>SUBSTRUCTURE
     1 UNK         1 GROUP             0       ****    0 ROOT    
