@<TRIPOS>MOLECULE
title: molecule 1
17   17    1
SMALL
USER_CHARGES


@<TRIPOS>ATOM
      1 O1          5.9374    0.2839    0.1887 O.3       1 UNK        -0.5850 
      2 C2          4.7879   -0.4526    0.1297 C.ar      1 UNK         0.1500 
      3 C3          4.8094   -1.8705    0.0837 C.ar      1 UNK         0.0900 
      4 C4          3.5566    0.2309    0.1371 C.ar      1 UNK        -0.1150 
      5 C5          3.5831   -2.5736    0.0593 C.ar      1 UNK        -0.1150 
      6 N6          6.0723   -2.6332    0.0669 N.pl3     1 UNK         0.6500 
      7 C7          2.3441   -0.4814    0.1049 C.ar      1 UNK        -0.1150 
      8 C8          2.3435   -1.8935    0.0678 C.ar      1 UNK         0.0900 
      9 O9          7.0196   -2.1911   -0.5745 O.co2     1 UNK        -0.3700 
     10 O10         6.1012   -3.6964    0.6784 O.co2     1 UNK        -0.3700 
     11 N11         1.0724   -2.6443    0.0373 N.pl3     1 UNK         0.6500 
     12 O12         1.1219   -3.8696    0.0039 O.co2     1 UNK        -0.3700 
     13 O13         0.0226   -2.0096    0.0466 O.co2     1 UNK        -0.3700 
     14 H14         5.7861    1.2163    0.2145 H         1 UNK         0.4350 
     15 H15         3.5356    1.3104    0.1731 H         1 UNK         0.1150 
     16 H16         3.6007   -3.6534    0.0260 H         1 UNK         0.1150 
     17 H17         1.4150    0.0697    0.1128 H         1 UNK         0.1150 
@<TRIPOS>BOND
     1    1    2 1    
     2    1   14 1    
     3    2    3 ar   
     4    2    4 ar   
     5    3    5 ar   
     6    3    6 1    
     7    4    7 ar   
     8    4   15 1    
     9    5    8 ar   
    10    5   16 1    
    11    6    9 2    
    12    6   10 1    
    13    7    8 ar   
    14    7   17 1    
    15    8   11 1    
    16   11   12 2    
    17   11   13 1    
@<TRIPOS>SUBSTRUCTURE
     1 UNK         1 GROUP             0       ****    0 ROOT    
