@<TRIPOS>MOLECULE
title: molecule 1
41   41    1
SMALL
USER_CHARGES


@<TRIPOS>ATOM
      1 N1          4.0079   -3.7606   -0.1101 N.am      1 UNK        -0.0317 
      2 C2          2.6824   -4.2444    0.1319 C.ar      1 UNK        -0.0383 
      3 C3          4.9259   -4.5443   -0.7411 C.2       1 UNK         0.5000 
      4 C4          4.3198   -2.3913    0.3661 C.3       1 UNK         0.0100 
      5 C5          2.3552   -4.7977    1.4014 C.ar      1 UNK        -0.1150 
      6 C6          1.6811   -4.1844   -0.8818 C.ar      1 UNK        -0.1150 
      7 O7          6.0551   -4.1464   -1.0296 O.2       1 UNK        -0.5000 
      8 C8          4.5309   -5.9839   -1.1180 C.3       1 UNK        -0.0060 
      9 C9          5.5285   -2.3376    1.3293 C.3       1 UNK         0.1400 
     10 C10         4.4925   -1.3926   -0.7954 C.3       1 UNK        -0.1800 
     11 C11         1.0545   -5.2833    1.6449 C.ar      1 UNK        -0.1150 
     12 C12         3.3745   -4.8949    2.5236 C.3       1 UNK        -0.0650 
     13 C13         0.3907   -4.6893   -0.6152 C.ar      1 UNK        -0.1150 
     14 C14         1.9324   -3.6036   -2.2702 C.3       1 UNK        -0.0050 
     15 Cl15        5.9121   -6.9128   -1.7659 Cl        1 UNK        -0.2000 
     16 O16         5.4758   -1.1292    2.0701 O.3       1 UNK        -0.4000 
     17 C17         0.0755   -5.2333    0.6402 C.ar      1 UNK        -0.1150 
     18 C18         1.1140   -2.3322   -2.5354 C.3       1 UNK        -0.1800 
     19 C19         6.5539   -1.0010    2.9805 C.3       1 UNK         0.1100 
     20 H20         3.4545   -2.0557    0.9409 H         1 UNK         0.0600 
     21 H21         4.1592   -6.5246   -0.2473 H         1 UNK         0.1030 
     22 H22         3.7534   -5.9806   -1.8817 H         1 UNK         0.1030 
     23 H23         6.4700   -2.3877    0.7811 H         1 UNK         0.0300 
     24 H24         5.5154   -3.1798    2.0199 H         1 UNK         0.0300 
     25 H25         4.6487   -0.3825   -0.4161 H         1 UNK         0.0600 
     26 H26         5.3483   -1.6376   -1.4241 H         1 UNK         0.0600 
     27 H27         3.6115   -1.3598   -1.4318 H         1 UNK         0.0600 
     28 H28         0.8012   -5.7035    2.6073 H         1 UNK         0.1150 
     29 H29         3.5255   -3.9164    2.9791 H         1 UNK         0.0600 
     30 H30         3.0367   -5.5762    3.3050 H         1 UNK         0.0600 
     31 H31         4.3309   -5.2694    2.1590 H         1 UNK         0.0600 
     32 H32        -0.3712   -4.6575   -1.3803 H         1 UNK         0.1150 
     33 H33         2.9860   -3.3945   -2.4412 H         1 UNK         0.0600 
     34 H34         1.6658   -4.3620   -3.0070 H         1 UNK         0.0600 
     35 H35        -0.9176   -5.6120    0.8323 H         1 UNK         0.1150 
     36 H36         1.3428   -1.9236   -3.5198 H         1 UNK         0.0600 
     37 H37         0.0429   -2.5321   -2.5041 H         1 UNK         0.0600 
     38 H38         1.3270   -1.5606   -1.7959 H         1 UNK         0.0600 
     39 H39         6.4662   -0.0589    3.5216 H         1 UNK         0.0300 
     40 H40         6.5515   -1.8104    3.7117 H         1 UNK         0.0300 
     41 H41         7.5124   -1.0018    2.4598 H         1 UNK         0.0300 
@<TRIPOS>BOND
     1    1    2 1    
     2    1    3 am   BACKBONE|DICT|INTERRES
     3    1    4 1    
     4    2    5 ar   
     5    2    6 ar   
     6    3    7 2    
     7    3    8 1    
     8    4    9 1    
     9    4   10 1    
    10    4   20 1    
    11    5   11 ar   
    12    5   12 1    
    13    6   13 ar   
    14    6   14 1    
    15    8   15 1    
    16    8   21 1    
    17    8   22 1    
    18    9   16 1    
    19    9   23 1    
    20    9   24 1    
    21   10   25 1    
    22   10   26 1    
    23   10   27 1    
    24   11   17 ar   
    25   11   28 1    
    26   12   29 1    
    27   12   30 1    
    28   12   31 1    
    29   13   17 ar   
    30   13   32 1    
    31   14   18 1    
    32   14   33 1    
    33   14   34 1    
    34   16   19 1    
    35   17   35 1    
    36   18   36 1    
    37   18   37 1    
    38   18   38 1    
    39   19   39 1    
    40   19   40 1    
    41   19   41 1    
@<TRIPOS>SUBSTRUCTURE
     1 UNK         1 GROUP             0       ****    0 ROOT    
