@<TRIPOS>MOLECULE
title: molecule 1
38   39    1
SMALL
USER_CHARGES


@<TRIPOS>ATOM
      1 N1          2.3286   -2.9587    0.5726 N.2       1 UNK        -0.7950 
      2 C2          2.4157   -1.7157    0.2161 C.ar      1 UNK         0.7866 
      3 C3          3.4812   -3.7420    0.6373 C.ar      1 UNK         0.4509 
      4 N4          3.6645   -1.1102   -0.0407 N.pl3     1 UNK        -0.3675 
      5 N5          1.2934   -0.9029    0.0564 N.pl3     1 UNK        -0.4130 
      6 N6          4.6737   -3.1960    0.2130 N.pl3     1 UNK        -0.2947 
      7 O7          3.3993   -4.9009    1.0452 O.2       1 UNK        -0.2225 
      8 C8          4.7812   -1.8777   -0.1641 C.ar      1 UNK         0.7530 
      9 C9          3.7602    0.3573   -0.1715 C.3       1 UNK        -0.0575 
     10 C10         0.9018   -0.4177   -1.2612 C.3       1 UNK         0.0390 
     11 C11         0.2037   -0.9636    1.0196 C.3       1 UNK         0.0390 
     12 C12         5.8876   -4.0717    0.1799 C.3       1 UNK        -0.0103 
     13 O13         5.8406   -1.3818   -0.5550 O.2       1 UNK        -0.5080 
     14 C14         6.4545   -4.2913   -1.2447 C.3       1 UNK        -0.1200 
     15 C15         6.9910   -3.6356    1.1750 C.3       1 UNK        -0.1200 
     16 C16         7.6224   -5.2918   -1.2213 C.3       1 UNK        -0.1200 
     17 C17         8.1551   -4.6408    1.1780 C.3       1 UNK        -0.1200 
     18 C18         8.7189   -4.8472   -0.2383 C.3       1 UNK        -0.1200 
     19 H19         4.7455    0.7379    0.1021 H         1 UNK         0.0600 
     20 H20         3.5663    0.6612   -1.2005 H         1 UNK         0.0600 
     21 H21         3.0608    0.8820    0.4809 H         1 UNK         0.0600 
     22 H22         1.6280   -0.6917   -2.0279 H         1 UNK         0.0600 
     23 H23         0.8146    0.6690   -1.2498 H         1 UNK         0.0600 
     24 H24        -0.0626   -0.8346   -1.5535 H         1 UNK         0.0600 
     25 H25        -0.4268   -0.0769    0.9463 H         1 UNK         0.0600 
     26 H26        -0.4166   -1.8424    0.8399 H         1 UNK         0.0600 
     27 H27         0.5884   -1.0178    2.0390 H         1 UNK         0.0600 
     28 H28         5.6354   -5.0807    0.5051 H         1 UNK         0.0600 
     29 H29         6.8102   -3.3604   -1.6838 H         1 UNK         0.0600 
     30 H30         5.6690   -4.6624   -1.9039 H         1 UNK         0.0600 
     31 H31         7.3869   -2.6516    0.9275 H         1 UNK         0.0600 
     32 H32         6.5747   -3.5563    2.1798 H         1 UNK         0.0600 
     33 H33         8.0411   -5.3963   -2.2227 H         1 UNK         0.0600 
     34 H34         7.2551   -6.2787   -0.9369 H         1 UNK         0.0600 
     35 H35         7.8138   -5.5964    1.5780 H         1 UNK         0.0600 
     36 H36         8.9441   -4.2923    1.8450 H         1 UNK         0.0600 
     37 H37         9.1696   -3.9184   -0.5904 H         1 UNK         0.0600 
     38 H38         9.5181   -5.5885   -0.2146 H         1 UNK         0.0600 
@<TRIPOS>BOND
     1    1    2 ar   
     2    1    3 ar   
     3    2    4 ar   
     4    2    5 1    
     5    3    6 ar   
     6    3    7 2    
     7    4    8 ar   
     8    4    9 1    
     9    5   10 1    
    10    5   11 1    
    11    6    8 ar   
    12    6   12 1    
    13    8   13 2    
    14    9   19 1    
    15    9   20 1    
    16    9   21 1    
    17   10   22 1    
    18   10   23 1    
    19   10   24 1    
    20   11   25 1    
    21   11   26 1    
    22   11   27 1    
    23   12   14 1    
    24   12   15 1    
    25   12   28 1    
    26   14   16 1    
    27   14   29 1    
    28   14   30 1    
    29   15   17 1    
    30   15   31 1    
    31   15   32 1    
    32   16   18 1    
    33   16   33 1    
    34   16   34 1    
    35   17   18 1    
    36   17   35 1    
    37   17   36 1    
    38   18   37 1    
    39   18   38 1    
@<TRIPOS>SUBSTRUCTURE
     1 UNK         1 GROUP             0       ****    0 ROOT    
