@<TRIPOS>MOLECULE
title: molecule 1
52   54    1
SMALL
USER_CHARGES


@<TRIPOS>ATOM
      1 O1          3.7799   -3.2990   -1.4170 O.2       1 UNK        -0.4300 
      2 C2          3.8849   -3.3728   -0.1914 C.2       1 UNK         0.5100 
      3 C3          2.8134   -4.0339    0.6993 C.3       1 UNK         0.0550 
      4 O4          4.9171   -2.8910    0.5276 O.3       1 UNK        -0.3300 
      5 C5          1.5523   -4.4587   -0.0597 C.ar      1 UNK        -0.1150 
      6 C6          3.3827   -5.1301    1.6511 C.3       1 UNK        -0.0600 
      7 C7          6.0376   -2.3028   -0.1206 C.3       1 UNK         0.2618 
      8 C8          0.3054   -3.9117    0.3153 C.ar      1 UNK        -0.1150 
      9 C9          1.6005   -5.3939   -1.1197 C.ar      1 UNK        -0.1150 
     10 C10         2.3132   -5.6747    2.6136 C.3       1 UNK        -0.1800 
     11 C11         4.1121   -6.2919    0.9462 C.3       1 UNK        -0.1800 
     12 C12         7.0617   -3.3412   -0.5474 C.ar      1 UNK        -0.0418 
     13 C13         6.6353   -1.3153    0.7914 C.1       1 UNK         0.5600 
     14 C14        -0.8732   -4.2918   -0.3554 C.ar      1 UNK        -0.1150 
     15 C15         0.4226   -5.7738   -1.7914 C.ar      1 UNK        -0.1150 
     16 C16         7.6235   -3.2876   -1.8398 C.ar      1 UNK        -0.1150 
     17 C17         7.4680   -4.3531    0.3488 C.ar      1 UNK        -0.1150 
     18 N18         7.1054   -0.5388    1.5090 N.1       1 UNK        -0.5600 
     19 C19        -0.8154   -5.2235   -1.4092 C.ar      1 UNK         0.1800 
     20 C20         8.5749   -4.2468   -2.2376 C.ar      1 UNK        -0.1150 
     21 C21         8.4228   -5.3112   -0.0446 C.ar      1 UNK         0.0850 
     22 Cl22       -2.2590   -5.6892   -2.2314 Cl        1 UNK        -0.1800 
     23 C23         8.9720   -5.2594   -1.3432 C.ar      1 UNK        -0.1150 
     24 O24         8.7950   -6.2930    0.8359 O.3       1 UNK        -0.1700 
     25 C25        10.0944   -6.2786    1.2720 C.ar      1 UNK         0.0850 
     26 C26        10.9399   -7.3648    0.9682 C.ar      1 UNK        -0.1150 
     27 C27        10.5895   -5.1993    2.0360 C.ar      1 UNK        -0.1150 
     28 C28        12.2759   -7.3686    1.4147 C.ar      1 UNK        -0.1150 
     29 C29        11.9256   -5.2032    2.4823 C.ar      1 UNK        -0.1150 
     30 C30        12.7692   -6.2873    2.1708 C.ar      1 UNK        -0.1150 
     31 H31         2.4889   -3.2228    1.3520 H         1 UNK         0.0600 
     32 H32         4.1320   -4.6445    2.2780 H         1 UNK         0.0600 
     33 H33         5.7100   -1.7401   -0.9961 H         1 UNK         0.0300 
     34 H34         0.2459   -3.1986    1.1245 H         1 UNK         0.1150 
     35 H35         2.5433   -5.8178   -1.4314 H         1 UNK         0.1150 
     36 H36         2.7567   -6.3381    3.3566 H         1 UNK         0.0600 
     37 H37         1.8195   -4.8648    3.1513 H         1 UNK         0.0600 
     38 H38         1.5457   -6.2415    2.0856 H         1 UNK         0.0600 
     39 H39         4.5994   -6.9379    1.6769 H         1 UNK         0.0600 
     40 H40         3.4237   -6.9167    0.3786 H         1 UNK         0.0600 
     41 H41         4.8877   -5.9410    0.2657 H         1 UNK         0.0600 
     42 H42        -1.8216   -3.8681   -0.0595 H         1 UNK         0.1150 
     43 H43         0.4711   -6.4866   -2.6014 H         1 UNK         0.1150 
     44 H44         7.3231   -2.5146   -2.5320 H         1 UNK         0.1150 
     45 H45         7.0461   -4.3989    1.3424 H         1 UNK         0.1150 
     46 H46         8.9996   -4.2066   -3.2299 H         1 UNK         0.1150 
     47 H47         9.6999   -5.9949   -1.6529 H         1 UNK         0.1150 
     48 H48        10.5632   -8.1953    0.3892 H         1 UNK         0.1150 
     49 H49         9.9453   -4.3671    2.2794 H         1 UNK         0.1150 
     50 H50        12.9219   -8.2012    1.1777 H         1 UNK         0.1150 
     51 H51        12.3026   -4.3752    3.0644 H         1 UNK         0.1150 
     52 H52        13.7935   -6.2904    2.5134 H         1 UNK         0.1150 
@<TRIPOS>BOND
     1    1    2 2    
     2    2    3 1    
     3    2    4 1    
     4    3    5 1    
     5    3    6 1    
     6    3   31 1    
     7    4    7 1    
     8    5    8 ar   
     9    5    9 ar   
    10    6   10 1    
    11    6   11 1    
    12    6   32 1    
    13    7   12 1    
    14    7   13 1    
    15    7   33 1    
    16    8   14 ar   
    17    8   34 1    
    18    9   15 ar   
    19    9   35 1    
    20   10   36 1    
    21   10   37 1    
    22   10   38 1    
    23   11   39 1    
    24   11   40 1    
    25   11   41 1    
    26   12   16 ar   
    27   12   17 ar   
    28   13   18 3    
    29   14   19 ar   
    30   14   42 1    
    31   15   19 ar   
    32   15   43 1    
    33   16   20 ar   
    34   16   44 1    
    35   17   21 ar   
    36   17   45 1    
    37   19   22 1    
    38   20   23 ar   
    39   20   46 1    
    40   21   23 ar   
    41   21   24 1    
    42   23   47 1    
    43   24   25 1    
    44   25   26 ar   
    45   25   27 ar   
    46   26   28 ar   
    47   26   48 1    
    48   27   29 ar   
    49   27   49 1    
    50   28   30 ar   
    51   28   50 1    
    52   29   30 ar   
    53   29   51 1    
    54   30   52 1    
@<TRIPOS>SUBSTRUCTURE
     1 UNK         1 GROUP             0       ****    0 ROOT    
