@<TRIPOS>MOLECULE
title: molecule 1
20   19    1
SMALL
USER_CHARGES


@<TRIPOS>ATOM
      1 P1          1.3560   -1.4330   -0.0678 P.3       1 UNK         1.0611 
      2 C2          3.1611   -1.8216    0.2375 C.3       1 UNK         0.4448 
      3 O3          0.8971   -1.6617   -1.4673 O.2       1 UNK        -0.6661 
      4 O4          0.5588   -2.2536    1.0873 O.3       1 UNK        -0.4611 
      5 O5          1.2294    0.0975    0.4650 O.3       1 UNK        -0.4611 
      6 C6          3.5903   -3.3061    0.1112 C.3       1 UNK        -0.2944 
      7 O7          3.6192   -1.3005    1.4695 O.3       1 UNK        -0.6830 
      8 C8         -0.1715   -3.4203    0.7618 C.3       1 UNK         0.0929 
      9 C9          1.6797    1.1712   -0.3355 C.3       1 UNK         0.0929 
     10 Cl10        2.9639   -4.2780    1.4712 Cl        1 UNK         0.0120 
     11 Cl11        3.0218   -3.9990   -1.4310 Cl        1 UNK         0.0120 
     12 Cl12        5.3728   -3.3947    0.1280 Cl        1 UNK         0.0120 
     13 H13         3.6860   -1.2628   -0.5377 H         1 UNK         0.0600 
     14 H14         3.6362   -2.0054    2.0984 H         1 UNK         0.4180 
     15 H15        -0.4025   -3.9802    1.6678 H         1 UNK         0.0600 
     16 H16        -1.1096   -3.1532    0.2749 H         1 UNK         0.0600 
     17 H17         0.3897   -4.0706    0.0906 H         1 UNK         0.0600 
     18 H18         1.4789    2.1177    0.1662 H         1 UNK         0.0600 
     19 H19         2.7530    1.1001   -0.5129 H         1 UNK         0.0600 
     20 H20         1.1664    1.1789   -1.2977 H         1 UNK         0.0600 
@<TRIPOS>BOND
     1    1    2 1    
     2    1    3 2    
     3    1    4 1    
     4    1    5 1    
     5    2    6 1    
     6    2    7 1    
     7    2   13 1    
     8    4    8 1    
     9    5    9 1    
    10    6   10 1    
    11    6   11 1    
    12    6   12 1    
    13    7   14 1    
    14    8   15 1    
    15    8   16 1    
    16    8   17 1    
    17    9   18 1    
    18    9   19 1    
    19    9   20 1    
@<TRIPOS>SUBSTRUCTURE
     1 UNK         1 GROUP             0       ****    0 ROOT    
