@<TRIPOS>MOLECULE
title: molecule 1
47   49    1
SMALL
USER_CHARGES


@<TRIPOS>ATOM
      1 C1          4.2524   -0.9379   -0.7092 C.3       1 UNK         0.0000 
      2 C2          4.3666   -0.8549    0.8038 C.3       1 UNK        -0.0600 
      3 C3          5.6089   -0.6874   -0.0606 C.3       1 UNK        -0.0600 
      4 C4          3.8958   -2.2566   -1.3914 C.3       1 UNK        -0.1800 
      5 C5          3.6051    0.2095   -1.4633 C.3       1 UNK        -0.1800 
      6 C6          4.1340   -2.0309    1.6902 C.2       1 UNK        -0.1150 
      7 C7          6.6724   -1.7577   -0.0748 C.2       1 UNK         0.5100 
      8 C8          4.5684   -2.1490    2.9550 C.2       1 UNK         0.1200 
      9 O9          6.9604   -2.1735   -1.3220 O.3       1 UNK        -0.3300 
     10 O10         7.2350   -2.1402    0.9517 O.2       1 UNK        -0.4300 
     11 Cl11        4.2616   -3.5391    3.9289 Cl        1 UNK        -0.0600 
     12 Cl12        5.4888   -0.9392    3.7745 Cl        1 UNK        -0.0600 
     13 C13         7.9365   -3.1837   -1.5383 C.3       1 UNK         0.2618 
     14 C14         7.5609   -3.9395   -2.7433 C.1       1 UNK         0.5600 
     15 C15         9.3377   -2.6094   -1.6575 C.ar      1 UNK        -0.0418 
     16 N16         7.2645   -4.5336   -3.6910 N.1       1 UNK        -0.5600 
     17 C17        10.3598   -3.0651   -0.7996 C.ar      1 UNK        -0.1150 
     18 C18         9.6262   -1.6250   -2.6267 C.ar      1 UNK        -0.1150 
     19 C19        11.6606   -2.5322   -0.8978 C.ar      1 UNK         0.0850 
     20 C20        10.9275   -1.0977   -2.7334 C.ar      1 UNK        -0.1150 
     21 O21        12.6406   -2.9831   -0.0529 O.3       1 UNK        -0.1700 
     22 C22        11.9442   -1.5509   -1.8710 C.ar      1 UNK        -0.1150 
     23 C23        13.1234   -2.0922    0.8702 C.ar      1 UNK         0.0850 
     24 C24        14.4827   -1.7212    0.8298 C.ar      1 UNK        -0.1150 
     25 C25        12.2818   -1.5566    1.8696 C.ar      1 UNK        -0.1150 
     26 C26        14.9969   -0.8119    1.7747 C.ar      1 UNK        -0.1150 
     27 C27        12.7962   -0.6473    2.8143 C.ar      1 UNK        -0.1150 
     28 C28        14.1535   -0.2740    2.7663 C.ar      1 UNK        -0.1150 
     29 H29         3.9847    0.0556    1.2623 H         1 UNK         0.0600 
     30 H30         5.9972    0.3283   -0.0967 H         1 UNK         0.0600 
     31 H31         4.2426   -2.2528   -2.4252 H         1 UNK         0.0600 
     32 H32         4.3484   -3.1119   -0.8902 H         1 UNK         0.0600 
     33 H33         2.8150   -2.4007   -1.3914 H         1 UNK         0.0600 
     34 H34         3.9638    0.2382   -2.4926 H         1 UNK         0.0600 
     35 H35         2.5208    0.0945   -1.4738 H         1 UNK         0.0600 
     36 H36         3.8423    1.1643   -0.9929 H         1 UNK         0.0600 
     37 H37         3.5620   -2.8452    1.2715 H         1 UNK         0.1150 
     38 H38         7.9134   -3.9055   -0.7202 H         1 UNK         0.0300 
     39 H39        10.1477   -3.8183   -0.0548 H         1 UNK         0.1150 
     40 H40         8.8495   -1.2716   -3.2893 H         1 UNK         0.1150 
     41 H41        11.1458   -0.3447   -3.4762 H         1 UNK         0.1150 
     42 H42        12.9413   -1.1440   -1.9546 H         1 UNK         0.1150 
     43 H43        15.1313   -2.1332    0.0706 H         1 UNK         0.1150 
     44 H44        11.2407   -1.8418    1.9118 H         1 UNK         0.1150 
     45 H45        16.0383   -0.5276    1.7392 H         1 UNK         0.1150 
     46 H46        12.1497   -0.2370    3.5761 H         1 UNK         0.1150 
     47 H47        14.5479    0.4232    3.4910 H         1 UNK         0.1150 
@<TRIPOS>BOND
     1    1    2 1    
     2    1    3 1    
     3    1    4 1    
     4    1    5 1    
     5    2    6 1    
     6    2    3 1    
     7    2   29 1    
     8    3    7 1    
     9    3   30 1    
    10    4   31 1    
    11    4   32 1    
    12    4   33 1    
    13    5   34 1    
    14    5   35 1    
    15    5   36 1    
    16    6    8 2    
    17    6   37 1    
    18    7    9 1    
    19    7   10 2    
    20    8   11 1    
    21    8   12 1    
    22    9   13 1    
    23   13   14 1    
    24   13   15 1    
    25   13   38 1    
    26   14   16 3    
    27   15   17 ar   
    28   15   18 ar   
    29   17   19 ar   
    30   17   39 1    
    31   18   20 ar   
    32   18   40 1    
    33   19   21 1    
    34   19   22 ar   
    35   20   22 ar   
    36   20   41 1    
    37   21   23 1    
    38   22   42 1    
    39   23   24 ar   
    40   23   25 ar   
    41   24   26 ar   
    42   24   43 1    
    43   25   27 ar   
    44   25   44 1    
    45   26   28 ar   
    46   26   45 1    
    47   27   28 ar   
    48   27   46 1    
    49   28   47 1    
@<TRIPOS>SUBSTRUCTURE
     1 UNK         1 GROUP             0       ****    0 ROOT    
