@<TRIPOS>MOLECULE
title: molecule 1
46   48    1
SMALL
USER_CHARGES


@<TRIPOS>ATOM
      1 C1          7.3897   -5.1732   -3.3847 C.ar      1 UNK        -0.1150 
      2 C2          6.9283   -6.4990   -3.2708 C.ar      1 UNK        -0.1150 
      3 C3          6.7823   -4.1463   -2.6334 C.ar      1 UNK        -0.0418 
      4 C4          5.8643   -6.8028   -2.3998 C.ar      1 UNK        -0.1150 
      5 C5          5.7112   -4.4521   -1.7691 C.ar      1 UNK        -0.1150 
      6 C6          7.2973   -2.7236   -2.7323 C.3       1 UNK         0.2318 
      7 C7          5.2590   -5.7820   -1.6403 C.ar      1 UNK         0.0850 
      8 O8          8.1074   -2.3909   -1.6145 O.3       1 UNK        -0.3300 
      9 O9          4.2328   -6.0909   -0.7863 O.3       1 UNK        -0.1700 
     10 C10         7.5902   -1.7380   -0.5570 C.2       1 UNK         0.5100 
     11 C11         4.4605   -5.9000    0.5521 C.ar      1 UNK         0.0850 
     12 O12         6.4746   -1.2185   -0.5089 O.2       1 UNK        -0.4300 
     13 C13         8.5624   -1.6764    0.5935 C.3       1 UNK        -0.0600 
     14 C14         5.4671   -6.6254    1.2256 C.ar      1 UNK        -0.1150 
     15 C15         3.6676   -4.9795    1.2667 C.ar      1 UNK        -0.1150 
     16 C16         8.1155   -2.0730    1.9993 C.3       1 UNK         0.0000 
     17 C17         9.0678   -2.9653    1.2246 C.3       1 UNK        -0.0600 
     18 C18         5.6870   -6.4209    2.6014 C.ar      1 UNK        -0.1150 
     19 C19         3.8836   -4.7789    2.6441 C.ar      1 UNK        -0.1150 
     20 C20         6.6948   -2.5309    2.3175 C.3       1 UNK        -0.1800 
     21 C21         8.6545   -1.2696    3.1695 C.3       1 UNK        -0.1800 
     22 C22         8.6812   -4.3246    0.7349 C.2       1 UNK        -0.1150 
     23 C23         4.8936   -5.4991    3.3113 C.ar      1 UNK        -0.1150 
     24 C24         9.4899   -5.3860    0.5830 C.2       1 UNK         0.1200 
     25 Cl25        8.9296   -6.9063   -0.0085 Cl        1 UNK        -0.0600 
     26 Cl26       11.1793   -5.3900    0.9416 Cl        1 UNK        -0.0600 
     27 H27         8.2142   -4.9486   -4.0455 H         1 UNK         0.1150 
     28 H28         7.3954   -7.2844   -3.8465 H         1 UNK         0.1150 
     29 H29         5.5172   -7.8214   -2.3077 H         1 UNK         0.1150 
     30 H30         5.2458   -3.6690   -1.1884 H         1 UNK         0.1150 
     31 H31         6.4594   -2.0348   -2.8499 H         1 UNK         0.0300 
     32 H32         7.9034   -2.6268   -3.6332 H         1 UNK         0.0300 
     33 H33         9.2587   -0.8415    0.5508 H         1 UNK         0.0600 
     34 H34         6.0722   -7.3390    0.6864 H         1 UNK         0.1150 
     35 H35         2.8936   -4.4252    0.7566 H         1 UNK         0.1150 
     36 H36        10.1058   -2.9372    1.5486 H         1 UNK         0.0600 
     37 H37         6.4619   -6.9734    3.1120 H         1 UNK         0.1150 
     38 H38         3.2761   -4.0708    3.1882 H         1 UNK         0.1150 
     39 H39         6.6941   -3.1556    3.2107 H         1 UNK         0.0600 
     40 H40         6.0530   -1.6688    2.5007 H         1 UNK         0.0600 
     41 H41         6.2522   -3.1063    1.5059 H         1 UNK         0.0600 
     42 H42         8.6684   -1.8779    4.0743 H         1 UNK         0.0600 
     43 H43         9.6718   -0.9308    2.9710 H         1 UNK         0.0600 
     44 H44         8.0319   -0.3923    3.3474 H         1 UNK         0.0600 
     45 H45         7.6443   -4.4612    0.4687 H         1 UNK         0.1150 
     46 H46         5.0610   -5.3427    4.3668 H         1 UNK         0.1150 
@<TRIPOS>BOND
     1    1    2 ar   
     2    1    3 ar   
     3    1   27 1    
     4    2    4 ar   
     5    2   28 1    
     6    3    5 ar   
     7    3    6 1    
     8    4    7 ar   
     9    4   29 1    
    10    5    7 ar   
    11    5   30 1    
    12    6    8 1    
    13    6   31 1    
    14    6   32 1    
    15    7    9 1    
    16    8   10 1    
    17    9   11 1    
    18   10   12 2    
    19   10   13 1    
    20   11   14 ar   
    21   11   15 ar   
    22   13   16 1    
    23   13   17 1    
    24   13   33 1    
    25   14   18 ar   
    26   14   34 1    
    27   15   19 ar   
    28   15   35 1    
    29   16   20 1    
    30   16   21 1    
    31   16   17 1    
    32   17   22 1    
    33   17   36 1    
    34   18   23 ar   
    35   18   37 1    
    36   19   23 ar   
    37   19   38 1    
    38   20   39 1    
    39   20   40 1    
    40   20   41 1    
    41   21   42 1    
    42   21   43 1    
    43   21   44 1    
    44   22   24 2    
    45   22   45 1    
    46   23   46 1    
    47   24   25 1    
    48   24   26 1    
@<TRIPOS>SUBSTRUCTURE
     1 UNK         1 GROUP             0       ****    0 ROOT    
