@<TRIPOS>MOLECULE
title: molecule 1
78   81    1
SMALL
USER_CHARGES


@<TRIPOS>ATOM
      1 C1          0.0355    2.3976    1.0457 C.3       1 UNK        -0.1800 
      2 C2          0.3978    2.0926   -0.4373 C.3       1 UNK         0.0000 
      3 C3          1.3926    0.9056   -0.4798 C.3       1 UNK        -0.1200 
      4 C4         -0.8939    1.7870   -1.2827 C.3       1 UNK        -0.0600 
      5 C5          1.0374    3.3634   -1.1563 C.3       1 UNK         0.2650 
      6 C6          2.7806    1.3036    0.0300 C.3       1 UNK        -0.1200 
      7 C7         -2.0942    0.8851   -0.7849 C.3       1 UNK         0.2650 
      8 C8         -1.3186    3.1777   -1.7777 C.3       1 UNK        -0.1200 
      9 C9         -0.0047    3.7913   -2.2188 C.3       1 UNK        -0.1200 
     10 C10         2.4575    3.1574   -1.7344 C.2       1 UNK         0.0000 
     11 O11         1.1257    4.4637   -0.2649 O.3       1 UNK        -0.6830 
     12 C12         3.4552    2.3933   -0.8379 C.3       1 UNK        -0.0600 
     13 C13        -3.0074    1.5175    0.2944 C.3       1 UNK        -0.1800 
     14 C14        -1.7134   -0.6009   -0.4600 C.3       1 UNK         0.2050 
     15 O15        -2.9197    0.8169   -1.9364 O.3       1 UNK        -0.6830 
     16 C16         2.8229    3.6584   -2.9396 C.2       1 UNK        -0.1150 
     17 C17         4.7247    1.8747   -1.6010 C.3       1 UNK         0.0000 
     18 C18        -2.8753   -1.6288   -0.5206 C.3       1 UNK        -0.1200 
     19 O19        -1.1825   -0.7000    0.8454 O.3       1 UNK        -0.6830 
     20 C20         4.1933    3.5501   -3.4527 C.2       1 UNK         0.4700 
     21 C21         5.8204    1.4447   -0.5673 C.3       1 UNK        -0.1200 
     22 C22         5.2670    3.0406   -2.4815 C.3       1 UNK        -0.0600 
     23 C23         4.3551    0.6520   -2.4941 C.3       1 UNK        -0.1800 
     24 C24        -2.4149   -3.0919   -0.3282 C.3       1 UNK        -0.1200 
     25 O25         4.4910    3.8829   -4.5992 O.2       1 UNK        -0.4700 
     26 C26         7.2080    2.0829   -0.7871 C.3       1 UNK         0.2050 
     27 C27         6.6195    2.7309   -3.1801 C.3       1 UNK        -0.1200 
     28 C28        -3.5118   -4.1658   -0.5225 C.3       1 UNK         0.2650 
     29 O29         8.1730    1.4822    0.0540 O.3       1 UNK        -0.6830 
     30 C30         7.6480    2.0318   -2.2626 C.3       1 UNK         0.2050 
     31 C31        -2.9162   -5.5712   -0.3340 C.3       1 UNK        -0.1800 
     32 C32        -4.7136   -3.9671    0.4185 C.3       1 UNK        -0.1800 
     33 O33        -3.9816   -4.1000   -1.8543 O.3       1 UNK        -0.6830 
     34 O34         7.8064    0.6876   -2.6783 O.3       1 UNK        -0.6830 
     35 H35        -0.3003    1.5152    1.5822 H         1 UNK         0.0600 
     36 H36         0.8854    2.7750    1.6131 H         1 UNK         0.0600 
     37 H37        -0.7489    3.1503    1.1234 H         1 UNK         0.0600 
     38 H38         1.0414    0.0716    0.1196 H         1 UNK         0.0600 
     39 H39         1.4887    0.5197   -1.4954 H         1 UNK         0.0600 
     40 H40        -0.5286    1.2754   -2.1763 H         1 UNK         0.0600 
     41 H41         3.4003    0.4120    0.1121 H         1 UNK         0.0600 
     42 H42         2.7074    1.6620    1.0559 H         1 UNK         0.0600 
     43 H43        -1.7536    3.7741   -0.9760 H         1 UNK         0.0600 
     44 H44        -2.0344    3.1468   -2.5995 H         1 UNK         0.0600 
     45 H45         0.2155    3.3458   -3.1894 H         1 UNK         0.0600 
     46 H46        -0.0723    4.8702   -2.3676 H         1 UNK         0.0600 
     47 H47         1.4015    5.2243   -0.7525 H         1 UNK         0.4180 
     48 H48         3.8023    3.1573   -0.1399 H         1 UNK         0.0600 
     49 H49        -2.5261    1.5873    1.2670 H         1 UNK         0.0600 
     50 H50        -3.9106    0.9260    0.4436 H         1 UNK         0.0600 
     51 H51        -3.3381    2.5183    0.0198 H         1 UNK         0.0600 
     52 H52        -0.9441   -0.9214   -1.1638 H         1 UNK         0.0600 
     53 H53        -3.6780    0.2920   -1.7306 H         1 UNK         0.4180 
     54 H54         2.1385    4.2178   -3.5575 H         1 UNK         0.1150 
     55 H55        -3.6259   -1.3764    0.2279 H         1 UNK         0.0600 
     56 H56        -3.3753   -1.5699   -1.4864 H         1 UNK         0.0600 
     57 H57        -0.9009   -1.5906    0.9879 H         1 UNK         0.4180 
     58 H58         5.9275    0.3590   -0.5757 H         1 UNK         0.0600 
     59 H59         5.5090    1.6828    0.4504 H         1 UNK         0.0600 
     60 H60         5.4513    3.8814   -1.8117 H         1 UNK         0.0600 
     61 H61         4.0704   -0.2200   -1.9067 H         1 UNK         0.0600 
     62 H62         3.5202    0.8597   -3.1628 H         1 UNK         0.0600 
     63 H63         5.1903    0.3372   -3.1174 H         1 UNK         0.0600 
     64 H64        -1.5975   -3.2946   -1.0220 H         1 UNK         0.0600 
     65 H65        -1.9920   -3.2072    0.6703 H         1 UNK         0.0600 
     66 H66         7.1594    3.1297   -0.4836 H         1 UNK         0.0600 
     67 H67         7.0479    3.6756   -3.5179 H         1 UNK         0.0600 
     68 H68         6.4632    2.1472   -4.0892 H         1 UNK         0.0600 
     69 H69         9.0151    1.8691   -0.1293 H         1 UNK         0.4180 
     70 H70         8.6176    2.5190   -2.3744 H         1 UNK         0.0600 
     71 H71        -3.6614   -6.3490   -0.5055 H         1 UNK         0.0600 
     72 H72        -2.0904   -5.7503   -1.0238 H         1 UNK         0.0600 
     73 H73        -2.5326   -5.7033    0.6782 H         1 UNK         0.0600 
     74 H74        -5.4456   -4.7669    0.3008 H         1 UNK         0.0600 
     75 H75        -4.3986   -3.9628    1.4625 H         1 UNK         0.0600 
     76 H76        -5.2329   -3.0285    0.2247 H         1 UNK         0.0600 
     77 H77        -4.6336   -4.7728   -1.9777 H         1 UNK         0.4180 
     78 H78         8.1234    0.6818   -3.5684 H         1 UNK         0.4180 
@<TRIPOS>BOND
     1    1    2 1    
     2    1   35 1    
     3    1   36 1    
     4    1   37 1    
     5    2    3 1    
     6    2    4 1    
     7    2    5 1    
     8    3    6 1    
     9    3   38 1    
    10    3   39 1    
    11    4    7 1    
    12    4    8 1    
    13    4   40 1    
    14    5    9 1    
    15    5   10 1    
    16    5   11 1    
    17    6   12 1    
    18    6   41 1    
    19    6   42 1    
    20    7   13 1    
    21    7   14 1    
    22    7   15 1    
    23    8    9 1    
    24    8   43 1    
    25    8   44 1    
    26    9   45 1    
    27    9   46 1    
    28   10   12 1    
    29   10   16 2    
    30   11   47 1    
    31   12   17 1    
    32   12   48 1    
    33   13   49 1    
    34   13   50 1    
    35   13   51 1    
    36   14   18 1    
    37   14   19 1    
    38   14   52 1    
    39   15   53 1    
    40   16   20 1    
    41   16   54 1    
    42   17   21 1    
    43   17   22 1    
    44   17   23 1    
    45   18   24 1    
    46   18   55 1    
    47   18   56 1    
    48   19   57 1    
    49   20   22 1    
    50   20   25 2    
    51   21   26 1    
    52   21   58 1    
    53   21   59 1    
    54   22   27 1    
    55   22   60 1    
    56   23   61 1    
    57   23   62 1    
    58   23   63 1    
    59   24   28 1    
    60   24   64 1    
    61   24   65 1    
    62   26   29 1    
    63   26   30 1    
    64   26   66 1    
    65   27   30 1    
    66   27   67 1    
    67   27   68 1    
    68   28   31 1    
    69   28   32 1    
    70   28   33 1    
    71   29   69 1    
    72   30   34 1    
    73   30   70 1    
    74   31   71 1    
    75   31   72 1    
    76   31   73 1    
    77   32   74 1    
    78   32   75 1    
    79   32   76 1    
    80   33   77 1    
    81   34   78 1    
@<TRIPOS>SUBSTRUCTURE
     1 UNK         1 GROUP             0       ****    0 ROOT    
