@<TRIPOS>MOLECULE
title: molecule 1
47   49    1
SMALL
USER_CHARGES


@<TRIPOS>ATOM
      1 C1          4.0442   -2.0944    0.4963 C.3       1 UNK         0.0000 
      2 C2          4.0299   -1.3512   -0.8287 C.3       1 UNK        -0.0600 
      3 C3          4.5074   -2.7967   -0.7749 C.3       1 UNK        -0.0600 
      4 C4          2.7270   -2.5350    1.1085 C.3       1 UNK        -0.1800 
      5 C5          5.0051   -1.6805    1.6084 C.3       1 UNK        -0.1800 
      6 C6          4.9338   -0.1981   -1.1066 C.2       1 UNK        -0.1150 
      7 C7          5.9670   -3.1142   -0.9888 C.2       1 UNK         0.5100 
      8 C8          5.2704    0.2583   -2.3237 C.2       1 UNK         0.2026 
      9 O9          6.4897   -3.8349    0.0212 O.3       1 UNK        -0.3300 
     10 O10         6.5697   -2.7751   -2.0076 O.2       1 UNK        -0.4300 
     11 Br11        6.4967    1.8071   -2.4335 Br        1 UNK        -0.1013 
     12 Br12        4.5398   -0.6291   -3.9397 Br        1 UNK        -0.1013 
     13 C13         7.8652   -4.1929    0.0112 C.3       1 UNK         0.2618 
     14 C14         8.0274   -5.4421    0.7718 C.1       1 UNK         0.5600 
     15 C15         8.7408   -3.0832    0.5686 C.ar      1 UNK        -0.0418 
     16 N16         8.1548   -6.4243    1.3702 N.1       1 UNK        -0.5600 
     17 C17         9.7046   -2.4656   -0.2551 C.ar      1 UNK        -0.1150 
     18 C18         8.5903   -2.6592    1.9061 C.ar      1 UNK        -0.1150 
     19 C19        10.5156   -1.4307    0.2517 C.ar      1 UNK         0.0850 
     20 C20         9.3945   -1.6211    2.4137 C.ar      1 UNK        -0.1150 
     21 O21        11.4395   -0.8365   -0.5682 O.3       1 UNK        -0.1700 
     22 C22        10.3544   -1.0056    1.5878 C.ar      1 UNK        -0.1150 
     23 C23        12.7586   -0.9561   -0.2150 C.ar      1 UNK         0.0850 
     24 C24        13.3825   -2.2216   -0.1621 C.ar      1 UNK        -0.1150 
     25 C25        13.5044    0.2029    0.0809 C.ar      1 UNK        -0.1150 
     26 C26        14.7408   -2.3257    0.1961 C.ar      1 UNK        -0.1150 
     27 C27        14.8628    0.0985    0.4390 C.ar      1 UNK        -0.1150 
     28 C28        15.4808   -1.1658    0.4977 C.ar      1 UNK        -0.1150 
     29 H29         3.0502   -1.1920   -1.2755 H         1 UNK         0.0600 
     30 H30         3.8232   -3.5131   -1.2249 H         1 UNK         0.0600 
     31 H31         2.8823   -3.3852    1.7733 H         1 UNK         0.0600 
     32 H32         2.2816   -1.7204    1.6805 H         1 UNK         0.0600 
     33 H33         2.0206   -2.8332    0.3331 H         1 UNK         0.0600 
     34 H34         5.1829   -2.5170    2.2848 H         1 UNK         0.0600 
     35 H35         5.9687   -1.3567    1.2159 H         1 UNK         0.0600 
     36 H36         4.5836   -0.8559    2.1838 H         1 UNK         0.0600 
     37 H37         5.3431    0.3097   -0.2464 H         1 UNK         0.1150 
     38 H38         8.1838   -4.4252   -1.0063 H         1 UNK         0.0300 
     39 H39         9.8228   -2.7809   -1.2816 H         1 UNK         0.1150 
     40 H40         7.8521   -3.1242    2.5434 H         1 UNK         0.1150 
     41 H41         9.2736   -1.2952    3.4364 H         1 UNK         0.1150 
     42 H42        10.9674   -0.2073    1.9799 H         1 UNK         0.1150 
     43 H43        12.8195   -3.1133   -0.3952 H         1 UNK         0.1150 
     44 H44        13.0325    1.1734    0.0355 H         1 UNK         0.1150 
     45 H45        15.2152   -3.2951    0.2384 H         1 UNK         0.1150 
     46 H46        15.4306    0.9884    0.6679 H         1 UNK         0.1150 
     47 H47        16.5224   -1.2457    0.7721 H         1 UNK         0.1150 
@<TRIPOS>BOND
     1    1    2 1    
     2    1    3 1    
     3    1    4 1    
     4    1    5 1    
     5    2    6 1    
     6    2    3 1    
     7    2   29 1    
     8    3    7 1    
     9    3   30 1    
    10    4   31 1    
    11    4   32 1    
    12    4   33 1    
    13    5   34 1    
    14    5   35 1    
    15    5   36 1    
    16    6    8 2    
    17    6   37 1    
    18    7    9 1    
    19    7   10 2    
    20    8   11 1    
    21    8   12 1    
    22    9   13 1    
    23   13   14 1    
    24   13   15 1    
    25   13   38 1    
    26   14   16 3    
    27   15   17 ar   
    28   15   18 ar   
    29   17   19 ar   
    30   17   39 1    
    31   18   20 ar   
    32   18   40 1    
    33   19   21 1    
    34   19   22 ar   
    35   20   22 ar   
    36   20   41 1    
    37   21   23 1    
    38   22   42 1    
    39   23   24 ar   
    40   23   25 ar   
    41   24   26 ar   
    42   24   43 1    
    43   25   27 ar   
    44   25   44 1    
    45   26   28 ar   
    46   26   45 1    
    47   27   28 ar   
    48   27   46 1    
    49   28   47 1    
@<TRIPOS>SUBSTRUCTURE
     1 UNK         1 GROUP             0       ****    0 ROOT    
