@<TRIPOS>MOLECULE
title: molecule 1
16   16    1
SMALL
USER_CHARGES


@<TRIPOS>ATOM
      1 C1          1.6942   -0.5713    0.1587 C.ar      1 UNK        -0.1150 
      2 C2          2.2231    0.7250    0.3151 C.ar      1 UNK        -0.1150 
      3 C3          0.3018   -0.7570    0.0557 C.ar      1 UNK        -0.1150 
      4 C4          1.3591    1.8393    0.3710 C.ar      1 UNK        -0.1150 
      5 C5         -0.5625    0.3539    0.1080 C.ar      1 UNK        -0.1150 
      6 C6         -0.0352    1.6508    0.2643 C.ar      1 UNK        -0.1150 
      7 C7          1.9197    3.2153    0.5290 C.2       1 UNK         0.4600 
      8 N8          2.2041    3.8429   -0.6711 N.am      1 UNK        -0.3588 
      9 O9          2.0753    3.6576    1.6717 O.2       1 UNK        -0.2225 
     10 C10         2.6673    4.9735   -0.6598 C.1       1 UNK         0.2438 
     11 S11         3.2728    6.4441   -0.7727 S.2       1 UNK        -0.0075 
     12 H12         2.3569   -1.4231    0.1172 H         1 UNK         0.1150 
     13 H13         3.2925    0.8599    0.3918 H         1 UNK         0.1150 
     14 H14        -0.1030   -1.7511   -0.0644 H         1 UNK         0.1150 
     15 H15        -1.6301    0.2114    0.0275 H         1 UNK         0.1150 
     16 H16        -0.7043    2.4985    0.3019 H         1 UNK         0.1150 
@<TRIPOS>BOND
     1    1    2 ar   
     2    1    3 ar   
     3    1   12 1    
     4    2    4 ar   
     5    2   13 1    
     6    3    5 ar   
     7    3   14 1    
     8    4    6 ar   
     9    4    7 1    
    10    5    6 ar   
    11    5   15 1    
    12    6   16 1    
    13    7    8 am   BACKBONE|DICT|INTERRES
    14    7    9 2    
    15    8   10 2    
    16   10   11 2    
@<TRIPOS>SUBSTRUCTURE
     1 UNK         1 GROUP             0       ****    0 ROOT    
