@<TRIPOS>MOLECULE
title: molecule 1
14   13    1
SMALL
USER_CHARGES


@<TRIPOS>ATOM
      1 C1          0.0911    0.1335    0.1366 C.3       1 UNK        -0.0280 
      2 N2         -0.2779   -0.4142   -1.1643 N.pl3     1 UNK        -0.4272 
      3 C3          0.0873    0.1144   -2.3586 C.2       1 UNK         0.4442 
      4 S4          1.0239    1.4856   -2.5806 S.2       1 UNK        -0.4762 
      5 N5         -0.4365   -0.6584   -3.3423 N.pl3     1 UNK        -0.4272 
      6 C6         -0.2663   -0.4168   -4.7710 C.3       1 UNK        -0.0280 
      7 H7         -0.3319   -0.4819    0.9306 H         1 UNK         0.0600 
      8 H8          1.1745    0.1482    0.2612 H         1 UNK         0.0600 
      9 H9         -0.2907    1.1482    0.2558 H         1 UNK         0.0600 
     10 H10        -0.8468   -1.2479   -1.1666 H         1 UNK         0.2912 
     11 H11        -0.9858   -1.4618   -3.0750 H         1 UNK         0.2912 
     12 H12        -0.7886   -1.1851   -5.3409 H         1 UNK         0.0600 
     13 H13        -0.6774    0.5527   -5.0549 H         1 UNK         0.0600 
     14 H14         0.7878   -0.4473   -5.0495 H         1 UNK         0.0600 
@<TRIPOS>BOND
     1    1    2 1    
     2    1    7 1    
     3    1    8 1    
     4    1    9 1    
     5    2    3 1    
     6    2   10 1    
     7    3    4 2    
     8    3    5 1    
     9    5    6 1    
    10    5   11 1    
    11    6   12 1    
    12    6   13 1    
    13    6   14 1    
@<TRIPOS>SUBSTRUCTURE
     1 UNK         1 GROUP             0       ****    0 ROOT    
