@<TRIPOS>MOLECULE
title: molecule 1
20   20    1
SMALL
USER_CHARGES


@<TRIPOS>ATOM
      1 O1          4.1570   -5.7412    0.0404 O.3       1 UNK        -0.5850 
      2 C2          3.4980   -4.5423    0.0794 C.ar      1 UNK         0.1500 
      3 C3          2.0843   -4.5494    0.0738 C.ar      1 UNK        -0.1150 
      4 C4          4.2029   -3.3079    0.1109 C.ar      1 UNK         0.0900 
      5 C5          1.3199   -5.8612    0.0386 C.3       1 UNK        -0.0650 
      6 C6          1.3714   -3.3347    0.0991 C.ar      1 UNK        -0.1150 
      7 C7          3.4649   -2.1015    0.1323 C.ar      1 UNK        -0.1150 
      8 N8          5.6810   -3.2422    0.1139 N.pl3     1 UNK         0.6500 
      9 C9          2.0522   -2.0987    0.1280 C.ar      1 UNK         0.0900 
     10 O10         6.2100   -2.2277   -0.3287 O.co2     1 UNK        -0.3700 
     11 O11         6.3165   -4.1897    0.5653 O.co2     1 UNK        -0.3700 
     12 N12         1.3015   -0.8271    0.1537 N.pl3     1 UNK         0.6500 
     13 O13         0.0757   -0.8756    0.1482 O.co2     1 UNK        -0.3700 
     14 O14         1.9364    0.2223    0.1795 O.co2     1 UNK        -0.3700 
     15 H15         5.0964   -5.6495    0.1136 H         1 UNK         0.4350 
     16 H16         0.2418   -5.6983    0.0462 H         1 UNK         0.0600 
     17 H17         1.5701   -6.4215   -0.8627 H         1 UNK         0.0600 
     18 H18         1.5747   -6.4719    0.9052 H         1 UNK         0.0600 
     19 H19         0.2913   -3.3578    0.0947 H         1 UNK         0.1150 
     20 H20         3.9956   -1.1609    0.1582 H         1 UNK         0.1150 
@<TRIPOS>BOND
     1    1    2 1    
     2    1   15 1    
     3    2    3 ar   
     4    2    4 ar   
     5    3    5 1    
     6    3    6 ar   
     7    4    7 ar   
     8    4    8 1    
     9    5   16 1    
    10    5   17 1    
    11    5   18 1    
    12    6    9 ar   
    13    6   19 1    
    14    7    9 ar   
    15    7   20 1    
    16    8   10 1    
    17    8   11 2    
    18    9   12 1    
    19   12   13 1    
    20   12   14 2    
@<TRIPOS>SUBSTRUCTURE
     1 UNK         1 GROUP             0       ****    0 ROOT    
