@<TRIPOS>MOLECULE
title: molecule 1
18   18    1
SMALL
USER_CHARGES


@<TRIPOS>ATOM
      1 O1          0.9571   -1.9082    0.1223 O.3       1 UNK        -0.2850 
      2 C2          0.6720   -3.2994    0.1302 C.3       1 UNK         0.1100 
      3 C3          2.2786   -1.5162    0.1054 C.ar      1 UNK         0.0850 
      4 C4          2.5341   -0.1294    0.0978 C.ar      1 UNK        -0.1150 
      5 C5          3.3769   -2.4138    0.0953 C.ar      1 UNK        -0.1150 
      6 C6          3.8539    0.3605    0.0806 C.ar      1 UNK        -0.1150 
      7 C7          4.6993   -1.9247    0.0781 C.ar      1 UNK         0.1800 
      8 C8          4.9375   -0.5369    0.0707 C.ar      1 UNK        -0.1150 
      9 N9          5.7722   -2.8147    0.0683 N.pl3     1 UNK        -0.9000 
     10 H10        -0.4081   -3.4450    0.1435 H         1 UNK         0.0300 
     11 H11         1.0596   -3.7911   -0.7630 H         1 UNK         0.0300 
     12 H12         1.0807   -3.7852    1.0173 H         1 UNK         0.0300 
     13 H13         1.7079    0.5664    0.1053 H         1 UNK         0.1150 
     14 H14         3.2255   -3.4826    0.1006 H         1 UNK         0.1150 
     15 H15         4.0346    1.4252    0.0750 H         1 UNK         0.1150 
     16 H16         5.9483   -0.1556    0.0575 H         1 UNK         0.1150 
     17 H17         5.6303   -3.8146    0.0731 H         1 UNK         0.3600 
     18 H18         6.7282   -2.4895    0.0558 H         1 UNK         0.3600 
@<TRIPOS>BOND
     1    1    2 1    
     2    1    3 1    
     3    2   10 1    
     4    2   11 1    
     5    2   12 1    
     6    3    4 ar   
     7    3    5 ar   
     8    4    6 ar   
     9    4   13 1    
    10    5    7 ar   
    11    5   14 1    
    12    6    8 ar   
    13    6   15 1    
    14    7    8 ar   
    15    7    9 1    
    16    8   16 1    
    17    9   17 1    
    18    9   18 1    
@<TRIPOS>SUBSTRUCTURE
     1 UNK         1 GROUP             0       ****    0 ROOT    
