@<TRIPOS>MOLECULE
title: molecule 1
9   8    1
SMALL
USER_CHARGES


@<TRIPOS>ATOM
      1 C1          2.4571   -0.3431    0.3215 C.2       1 UNK        -0.1150 
      2 C2          3.6196    0.1632   -0.1165 C.2       1 UNK         0.0050 
      3 C3          1.1166    0.3430    0.1767 C.3       1 UNK        -0.0060 
      4 Cl4         5.1220   -0.6623    0.0763 Cl        1 UNK        -0.1200 
      5 Cl5        -0.0529   -0.6574   -0.7195 Cl        1 UNK        -0.2000 
      6 H6          2.4499   -1.3036    0.8160 H         1 UNK         0.1150 
      7 H7          3.6832    1.1187   -0.6165 H         1 UNK         0.1150 
      8 H8          0.6956    0.5443    1.1619 H         1 UNK         0.1030 
      9 H9          1.2160    1.2929   -0.3497 H         1 UNK         0.1030 
@<TRIPOS>BOND
     1    1    2 2    
     2    1    3 1    
     3    1    6 1    
     4    2    4 1    
     5    2    7 1    
     6    3    5 1    
     7    3    8 1    
     8    3    9 1    
@<TRIPOS>SUBSTRUCTURE
     1 UNK         1 GROUP             0       ****    0 ROOT    
