@<TRIPOS>MOLECULE
title: molecule 1
10   9    1
SMALL
USER_CHARGES


@<TRIPOS>ATOM
      1 C1         -0.3735    0.2269    0.0501 C.3       1 UNK        -0.1800 
      2 C2          0.9444    0.9986    0.1728 C.3       1 UNK         0.1002 
      3 N3          2.0591    0.0959    0.0731 N.2       1 UNK        -0.4565 
      4 C4          3.2773    0.0730    0.0902 C.1       1 UNK         0.2438 
      5 S5          4.8675    0.1577    0.1277 S.2       1 UNK        -0.0075 
      6 H6         -1.2260    0.9021    0.1244 H         1 UNK         0.0600 
      7 H7         -0.4412   -0.2892   -0.9081 H         1 UNK         0.0600 
      8 H8         -0.4701   -0.5180    0.8407 H         1 UNK         0.0600 
      9 H9          1.0081    1.7540   -0.6113 H         1 UNK         0.0600 
     10 H10         0.9795    1.5267    1.1264 H         1 UNK         0.0600 
@<TRIPOS>BOND
     1    1    2 1    
     2    1    6 1    
     3    1    7 1    
     4    1    8 1    
     5    2    3 1    
     6    2    9 1    
     7    2   10 1    
     8    3    4 2    
     9    4    5 2    
@<TRIPOS>SUBSTRUCTURE
     1 UNK         1 GROUP             0       ****    0 ROOT    
