@<TRIPOS>MOLECULE
title: molecule 1
20   19    1
SMALL
USER_CHARGES


@<TRIPOS>ATOM
      1 O1          5.6329    0.2568   -0.8616 O.co2     1 UNK        -0.3113 
      2 N2          5.7419   -0.5991   -0.0151 N.pl3     1 UNK         0.6449 
      3 O3          4.7352   -1.6130   -0.1003 O.3       1 UNK        -0.3358 
      4 O4          6.5634   -0.6980    0.8689 O.co2     1 UNK        -0.3113 
      5 C5          4.8004   -2.6834    0.8438 C.3       1 UNK         0.2535 
      6 C6          3.3572   -3.1641    1.0502 C.3       1 UNK         0.1935 
      7 C7          5.7169   -3.8054    0.3237 C.3       1 UNK         0.1935 
      8 O8          2.8781   -3.7665   -0.1484 O.3       1 UNK        -0.3358 
      9 O9          7.0796   -3.4547    0.5351 O.3       1 UNK        -0.3358 
     10 N10         1.5358   -4.2530   -0.1028 N.pl3     1 UNK         0.6449 
     11 N11         8.0431   -4.3951    0.0582 N.pl3     1 UNK         0.6449 
     12 O12         0.9331   -4.1139    0.9391 O.co2     1 UNK        -0.3113 
     13 O13         1.1683   -4.7553   -1.1389 O.co2     1 UNK        -0.3113 
     14 O14         7.6198   -5.4004   -0.4693 O.co2     1 UNK        -0.3113 
     15 O15         9.1868   -4.0552    0.2512 O.co2     1 UNK        -0.3113 
     16 H16         5.1469   -2.3462    1.8216 H         1 UNK         0.0600 
     17 H17         3.3272   -3.8918    1.8629 H         1 UNK         0.0600 
     18 H18         2.7246   -2.3221    1.3360 H         1 UNK         0.0600 
     19 H19         5.5092   -4.7276    0.8689 H         1 UNK         0.0600 
     20 H20         5.5179   -3.9921   -0.7330 H         1 UNK         0.0600 
@<TRIPOS>BOND
     1    1    2 2    
     2    2    3 1    
     3    2    4 1    
     4    3    5 1    
     5    5    6 1    
     6    5    7 1    
     7    5   16 1    
     8    6    8 1    
     9    6   17 1    
    10    6   18 1    
    11    7    9 1    
    12    7   19 1    
    13    7   20 1    
    14    8   10 1    
    15    9   11 1    
    16   10   12 2    
    17   10   13 1    
    18   11   14 2    
    19   11   15 1    
@<TRIPOS>SUBSTRUCTURE
     1 UNK         1 GROUP             0       ****    0 ROOT    
