@<TRIPOS>MOLECULE
title: molecule 1
14   14    1
SMALL
USER_CHARGES


@<TRIPOS>ATOM
      1 Cl1         5.0974   -2.7766    0.1182 Cl        1 UNK        -0.1800 
      2 C2          3.6198   -1.8784    0.1056 C.ar      1 UNK         0.1800 
      3 C3          2.3941   -2.5736    0.0905 C.ar      1 UNK        -0.1150 
      4 C4          3.6268   -0.4643    0.1103 C.ar      1 UNK         0.1800 
      5 C5          1.1773   -1.8648    0.0801 C.ar      1 UNK         0.1800 
      6 C6          2.4065    0.2419    0.0999 C.ar      1 UNK        -0.1150 
      7 N7          4.8278    0.2456    0.1253 N.pl3     1 UNK        -0.9000 
      8 Cl8        -0.3203   -2.7211    0.0616 Cl        1 UNK        -0.1800 
      9 C9          1.1838   -0.4567    0.0847 C.ar      1 UNK        -0.1150 
     10 H10         2.3878   -3.6537    0.0869 H         1 UNK         0.1150 
     11 H11         2.4023    1.3222    0.1034 H         1 UNK         0.1150 
     12 H12         4.8491    1.2552    0.1288 H         1 UNK         0.3600 
     13 H13         5.7181   -0.2321    0.1330 H         1 UNK         0.3600 
     14 H14         0.2517    0.0891    0.0768 H         1 UNK         0.1150 
@<TRIPOS>BOND
     1    1    2 1    
     2    2    3 ar   
     3    2    4 ar   
     4    3    5 ar   
     5    3   10 1    
     6    4    6 ar   
     7    4    7 1    
     8    5    8 1    
     9    5    9 ar   
    10    6    9 ar   
    11    6   11 1    
    12    7   12 1    
    13    7   13 1    
    14    9   14 1    
@<TRIPOS>SUBSTRUCTURE
     1 UNK         1 GROUP             0       ****    0 ROOT    
