@<TRIPOS>MOLECULE
title: molecule 1
5   4    1
SMALL
USER_CHARGES


@<TRIPOS>ATOM
      1 Cl1         1.3533   -2.6465   -0.8881 Cl        1 UNK        -0.2000 
      2 C2          1.4197   -1.1755    0.1138 C.3       1 UNK         0.8000 
      3 Cl3         1.3802    0.2613   -0.9379 Cl        1 UNK        -0.2000 
      4 Cl4         0.0204   -1.1437    1.2151 Cl        1 UNK        -0.2000 
      5 Cl5         2.9248   -1.1731    1.0659 Cl        1 UNK        -0.2000 
@<TRIPOS>BOND
     1    1    2 1    
     2    2    3 1    
     3    2    4 1    
     4    2    5 1    
@<TRIPOS>SUBSTRUCTURE
     1 UNK         1 GROUP             0       ****    0 ROOT    
