@<TRIPOS>MOLECULE
title: molecule 1
32   32    1
SMALL
USER_CHARGES


@<TRIPOS>ATOM
      1 S1          6.9226   -1.8936    2.5631 S.2       1 UNK        -0.5895 
      2 P2          7.0686   -2.1014    0.6156 P.3       1 UNK         1.1541 
      3 O3          5.9538   -1.3251   -0.2852 O.3       1 UNK        -0.2882 
      4 O4          6.9478   -3.6359    0.0773 O.3       1 UNK        -0.4611 
      5 O5          8.4585   -1.6115   -0.0826 O.3       1 UNK        -0.4611 
      6 C6          4.5991   -1.3686   -0.0885 C.ar      1 UNK         0.1000 
      7 C7          7.4721   -4.0743   -1.1682 C.3       1 UNK         0.1529 
      8 C8          8.8480   -0.2486   -0.1332 C.3       1 UNK         0.1529 
      9 C9          3.8866   -0.1597    0.0206 C.ar      1 UNK        -0.1150 
     10 C10         3.9038   -2.5932   -0.0101 C.ar      1 UNK        -0.1150 
     11 C11         6.8648   -3.3473   -2.3762 C.3       1 UNK        -0.1800 
     12 C12         9.8090    0.1022    1.0086 C.3       1 UNK        -0.1800 
     13 C13         2.4925   -0.1712    0.2191 C.ar      1 UNK        -0.1150 
     14 C14         2.5098   -2.6053    0.1882 C.ar      1 UNK        -0.1150 
     15 C15         1.7877   -1.3946    0.3065 C.ar      1 UNK         0.0900 
     16 N16         0.3260   -1.4076    0.5151 N.pl3     1 UNK         0.6500 
     17 O17        -0.2566   -0.3322    0.6112 O.co2     1 UNK        -0.3700 
     18 O18        -0.2415   -2.4932    0.5828 O.co2     1 UNK        -0.3700 
     19 H19         8.5569   -3.9629   -1.1657 H         1 UNK         0.0600 
     20 H20         7.2730   -5.1427   -1.2520 H         1 UNK         0.0600 
     21 H21         9.3351   -0.0718   -1.0922 H         1 UNK         0.0600 
     22 H22         7.9721    0.4008   -0.1026 H         1 UNK         0.0600 
     23 H23         4.4123    0.7816   -0.0440 H         1 UNK         0.1150 
     24 H24         4.4327   -3.5297   -0.1019 H         1 UNK         0.1150 
     25 H25         7.2274   -3.7821   -3.3076 H         1 UNK         0.0600 
     26 H26         5.7775   -3.4251   -2.3750 H         1 UNK         0.0600 
     27 H27         7.1298   -2.2904   -2.3883 H         1 UNK         0.0600 
     28 H28        10.1549    1.1319    0.9185 H         1 UNK         0.0600 
     29 H29         9.3360    0.0012    1.9840 H         1 UNK         0.0600 
     30 H30        10.6854   -0.5458    0.9923 H         1 UNK         0.0600 
     31 H31         1.9709    0.7710    0.3033 H         1 UNK         0.1150 
     32 H32         2.0012   -3.5564    0.2474 H         1 UNK         0.1150 
@<TRIPOS>BOND
     1    1    2 2    
     2    2    3 1    
     3    2    4 1    
     4    2    5 1    
     5    3    6 1    
     6    4    7 1    
     7    5    8 1    
     8    6    9 ar   
     9    6   10 ar   
    10    7   11 1    
    11    7   19 1    
    12    7   20 1    
    13    8   12 1    
    14    8   21 1    
    15    8   22 1    
    16    9   13 ar   
    17    9   23 1    
    18   10   14 ar   
    19   10   24 1    
    20   11   25 1    
    21   11   26 1    
    22   11   27 1    
    23   12   28 1    
    24   12   29 1    
    25   12   30 1    
    26   13   15 ar   
    27   13   31 1    
    28   14   15 ar   
    29   14   32 1    
    30   15   16 1    
    31   16   17 2    
    32   16   18 1    
@<TRIPOS>SUBSTRUCTURE
     1 UNK         1 GROUP             0       ****    0 ROOT    
