@<TRIPOS>MOLECULE
title: molecule 1
30   33    1
SMALL
USER_CHARGES


@<TRIPOS>ATOM
      1 C1          4.7116   -2.4873    0.1100 C.ar      1 UNK         0.0000 
      2 C2          3.4576   -1.8233    0.1179 C.ar      1 UNK        -0.1150 
      3 C3          4.7169   -3.9101    0.0986 C.ar      1 UNK         0.0000 
      4 C4          5.9538   -1.7852    0.1129 C.ar      1 UNK         0.0000 
      5 C5          2.2489   -2.5492    0.1147 C.ar      1 UNK         0.0000 
      6 C6          3.5083   -4.6367    0.0954 C.ar      1 UNK        -0.1150 
      7 C7          5.9320   -4.6207    0.0904 C.ar      1 UNK        -0.1150 
      8 C8          7.1707   -2.5230    0.1045 C.ar      1 UNK         0.0000 
      9 C9          6.0336   -0.3682    0.1241 C.ar      1 UNK        -0.1150 
     10 C10         1.0120   -1.8705    0.1228 C.ar      1 UNK        -0.1150 
     11 C11         2.2732   -3.9632    0.1034 C.ar      1 UNK         0.0000 
     12 C12         7.1535   -3.9303    0.0933 C.ar      1 UNK        -0.1150 
     13 C13         8.4156   -1.8597    0.1071 C.ar      1 UNK        -0.1150 
     14 C14         7.2792    0.2883    0.1266 C.ar      1 UNK        -0.1150 
     15 C15        -0.1938   -2.5985    0.1195 C.ar      1 UNK        -0.1150 
     16 C16         1.0640   -4.6890    0.1002 C.ar      1 UNK        -0.1150 
     17 C17         8.4711   -0.4555    0.1182 C.ar      1 UNK        -0.1150 
     18 C18        -0.1680   -4.0065    0.1082 C.ar      1 UNK        -0.1150 
     19 H19         3.3871   -0.7482    0.1267 H         1 UNK         0.1150 
     20 H20         3.5287   -5.7172    0.0868 H         1 UNK         0.1150 
     21 H21         5.9337   -5.7011    0.0818 H         1 UNK         0.1150 
     22 H22         5.1558    0.2563    0.1309 H         1 UNK         0.1150 
     23 H23         0.9815   -0.7906    0.1314 H         1 UNK         0.1150 
     24 H24         8.0786   -4.4885    0.0869 H         1 UNK         0.1150 
     25 H25         9.3358   -2.4259    0.1007 H         1 UNK         0.1150 
     26 H26         7.3188    1.3676    0.1352 H         1 UNK         0.1150 
     27 H27        -1.1392   -2.0763    0.1257 H         1 UNK         0.1150 
     28 H28         1.0753   -5.7693    0.0916 H         1 UNK         0.1150 
     29 H29         9.4258    0.0496    0.1202 H         1 UNK         0.1150 
     30 H30        -1.0934   -4.5633    0.1058 H         1 UNK         0.1150 
@<TRIPOS>BOND
     1    1    2 ar   
     2    1    3 ar   
     3    1    4 ar   
     4    2    5 ar   
     5    2   19 1    
     6    3    6 ar   
     7    3    7 ar   
     8    4    8 ar   
     9    4    9 ar   
    10    5   10 ar   
    11    5   11 ar   
    12    6   11 ar   
    13    6   20 1    
    14    7   12 ar   
    15    7   21 1    
    16    8   12 ar   
    17    8   13 ar   
    18    9   14 ar   
    19    9   22 1    
    20   10   15 ar   
    21   10   23 1    
    22   11   16 ar   
    23   12   24 1    
    24   13   17 ar   
    25   13   25 1    
    26   14   17 ar   
    27   14   26 1    
    28   15   18 ar   
    29   15   27 1    
    30   16   18 ar   
    31   16   28 1    
    32   17   29 1    
    33   18   30 1    
@<TRIPOS>SUBSTRUCTURE
     1 UNK         1 GROUP             0       ****    0 ROOT    
