@<TRIPOS>MOLECULE
title: molecule 1
40   41    1
SMALL
USER_CHARGES


@<TRIPOS>ATOM
      1 C1          6.1393   -3.4442    0.5233 C.2       1 UNK         0.0000 
      2 C2          5.4088   -2.3797    0.0997 C.2       1 UNK         0.0000 
      3 C3          7.6085   -3.4789    0.4136 C.ar      1 UNK         0.0000 
      4 C4          5.5265   -4.7101    1.1220 C.3       1 UNK        -0.1200 
      5 C5          3.9355   -2.3768    0.1367 C.ar      1 UNK         0.0000 
      6 C6          6.0228   -1.1045   -0.4778 C.3       1 UNK        -0.1200 
      7 C7          8.4102   -3.4417    1.5745 C.ar      1 UNK        -0.1150 
      8 C8          8.2291   -3.5844   -0.8505 C.ar      1 UNK        -0.1150 
      9 C9          5.6698   -5.9284    0.1999 C.3       1 UNK        -0.1800 
     10 C10         3.2474   -1.5211    1.0233 C.ar      1 UNK        -0.1150 
     11 C11         3.1964   -3.2036   -0.7375 C.ar      1 UNK        -0.1150 
     12 C12         5.7452   -0.9427   -1.9784 C.3       1 UNK        -0.1800 
     13 C13         9.8140   -3.4923    1.4728 C.ar      1 UNK        -0.1150 
     14 C14         9.6327   -3.6350   -0.9542 C.ar      1 UNK        -0.1150 
     15 C15         1.8393   -1.5040    1.0480 C.ar      1 UNK        -0.1150 
     16 C16         1.7884   -3.1881   -0.7141 C.ar      1 UNK        -0.1150 
     17 C17        10.4265   -3.5876    0.2083 C.ar      1 UNK         0.1500 
     18 C18         1.1086   -2.3385    0.1803 C.ar      1 UNK         0.1500 
     19 O19        11.7866   -3.6365    0.1127 O.3       1 UNK        -0.5850 
     20 O20        -0.2554   -2.3199    0.2063 O.3       1 UNK        -0.5850 
     21 H21         6.0043   -4.9145    2.0805 H         1 UNK         0.0600 
     22 H22         4.4715   -4.5714    1.3536 H         1 UNK         0.0600 
     23 H23         5.6282   -0.2454    0.0653 H         1 UNK         0.0600 
     24 H24         7.0995   -1.0726   -0.3179 H         1 UNK         0.0600 
     25 H25         7.9491   -3.3696    2.5487 H         1 UNK         0.1150 
     26 H26         7.6263   -3.6279   -1.7457 H         1 UNK         0.1150 
     27 H27         5.2023   -6.8068    0.6451 H         1 UNK         0.0600 
     28 H28         5.1929   -5.7515   -0.7643 H         1 UNK         0.0600 
     29 H29         6.7170   -6.1704    0.0168 H         1 UNK         0.0600 
     30 H30         3.7996   -0.8768    1.6918 H         1 UNK         0.1150 
     31 H31         3.7111   -3.8528   -1.4306 H         1 UNK         0.1150 
     32 H32         6.2159   -0.0378   -2.3629 H         1 UNK         0.0600 
     33 H33         6.1371   -1.7873   -2.5453 H         1 UNK         0.0600 
     34 H34         4.6765   -0.8693   -2.1817 H         1 UNK         0.0600 
     35 H35        10.4195   -3.4589    2.3667 H         1 UNK         0.1150 
     36 H36        10.0945   -3.7125   -1.9276 H         1 UNK         0.1150 
     37 H37         1.3214   -0.8489    1.7331 H         1 UNK         0.1150 
     38 H38         1.2353   -3.8281   -1.3859 H         1 UNK         0.1150 
     39 H39        12.0953   -3.7007   -0.7780 H         1 UNK         0.4350 
     40 H40        -0.6478   -2.9147   -0.4141 H         1 UNK         0.4350 
@<TRIPOS>BOND
     1    1    2 2    
     2    1    3 1    
     3    1    4 1    
     4    2    5 1    
     5    2    6 1    
     6    3    7 ar   
     7    3    8 ar   
     8    4    9 1    
     9    4   21 1    
    10    4   22 1    
    11    5   10 ar   
    12    5   11 ar   
    13    6   12 1    
    14    6   23 1    
    15    6   24 1    
    16    7   13 ar   
    17    7   25 1    
    18    8   14 ar   
    19    8   26 1    
    20    9   27 1    
    21    9   28 1    
    22    9   29 1    
    23   10   15 ar   
    24   10   30 1    
    25   11   16 ar   
    26   11   31 1    
    27   12   32 1    
    28   12   33 1    
    29   12   34 1    
    30   13   17 ar   
    31   13   35 1    
    32   14   17 ar   
    33   14   36 1    
    34   15   18 ar   
    35   15   37 1    
    36   16   18 ar   
    37   16   38 1    
    38   17   19 1    
    39   18   20 1    
    40   19   39 1    
    41   20   40 1    
@<TRIPOS>SUBSTRUCTURE
     1 UNK         1 GROUP             0       ****    0 ROOT    
