@<TRIPOS>MOLECULE
title: molecule 1
24   26    1
SMALL
USER_CHARGES


@<TRIPOS>ATOM
      1 C1          1.9386   -2.2229    0.0602 C.3       1 UNK         0.0970 
      2 C2          2.9716   -1.2418   -0.5103 C.3       1 UNK        -0.1200 
      3 C3          2.7287   -3.2559    0.8851 C.3       1 UNK         0.0970 
      4 Cl4         1.1194   -3.0552   -1.2910 Cl        1 UNK        -0.2000 
      5 C5          4.2355   -2.0890   -0.7348 C.3       1 UNK        -0.0600 
      6 C6          4.1442   -3.2983    0.2439 C.3       1 UNK        -0.0600 
      7 Cl7         2.6406   -2.8705    2.6261 Cl        1 UNK        -0.2000 
      8 C8          5.6484   -1.4926   -0.4353 C.3       1 UNK         0.2000 
      9 C9          5.5085   -3.2043    1.0167 C.3       1 UNK         0.2000 
     10 C10         6.6201   -2.5612   -0.9031 C.2       1 UNK         0.1200 
     11 C11         5.8326   -1.6796    1.0979 C.3       1 UNK         0.2716 
     12 Cl12        5.9185    0.1621   -1.0500 Cl        1 UNK        -0.2000 
     13 C13         6.5413   -3.5737   -0.0413 C.2       1 UNK         0.1200 
     14 Cl14        5.6325   -4.1195    2.5471 Cl        1 UNK        -0.2000 
     15 Cl15        7.7157   -2.2777   -2.2071 Cl        1 UNK        -0.1200 
     16 Cl16        7.5184   -1.3582    1.6397 Cl        1 UNK        -0.1358 
     17 Cl17        4.7803   -0.6701    2.1274 Cl        1 UNK        -0.1358 
     18 Cl18        7.5054   -4.9998    0.0982 Cl        1 UNK        -0.1200 
     19 H19         1.1635   -1.7211    0.6405 H         1 UNK         0.1030 
     20 H20         3.1343   -0.4257    0.1869 H         1 UNK         0.0600 
     21 H21         2.6278   -0.7759   -1.4344 H         1 UNK         0.0600 
     22 H22         2.2591   -4.2369    0.8005 H         1 UNK         0.1030 
     23 H23         4.2000   -2.4511   -1.7644 H         1 UNK         0.0600 
     24 H24         4.1576   -4.2177   -0.3458 H         1 UNK         0.0600 
@<TRIPOS>BOND
     1    1    2 1    
     2    1    3 1    
     3    1    4 1    
     4    1   19 1    
     5    2    5 1    
     6    2   20 1    
     7    2   21 1    
     8    3    6 1    
     9    3    7 1    
    10    3   22 1    
    11    5    6 1    
    12    5    8 1    
    13    5   23 1    
    14    6    9 1    
    15    6   24 1    
    16    8   10 1    
    17    8   11 1    
    18    8   12 1    
    19    9   13 1    
    20    9   11 1    
    21    9   14 1    
    22   10   13 2    
    23   10   15 1    
    24   11   16 1    
    25   11   17 1    
    26   13   18 1    
@<TRIPOS>SUBSTRUCTURE
     1 UNK         1 GROUP             0       ****    0 ROOT    
