@<TRIPOS>MOLECULE
title: molecule 1
17   17    1
SMALL
USER_CHARGES


@<TRIPOS>ATOM
      1 C1         -0.8054    1.5544    0.1908 C.ar      1 UNK         0.1500 
      2 C2         -1.0664    0.2226    0.5875 C.ar      1 UNK         0.0850 
      3 C3          0.5024    1.9401   -0.1596 C.ar      1 UNK        -0.1150 
      4 O4         -1.8078    2.4816    0.1568 O.3       1 UNK        -0.5850 
      5 C5         -0.0069   -0.7094    0.6522 C.ar      1 UNK         0.1800 
      6 O6         -2.3312   -0.1740    0.9420 O.3       1 UNK        -0.2850 
      7 C7          1.5563    1.0083   -0.1085 C.ar      1 UNK         0.1800 
      8 C8          1.3055   -0.3199    0.3007 C.ar      1 UNK         0.1800 
      9 Cl9        -0.3310   -2.3322    1.1573 Cl        1 UNK        -0.1800 
     10 C10        -3.1993   -0.3781   -0.1620 C.3       1 UNK         0.1100 
     11 Cl11        3.1487    1.5176   -0.5456 Cl        1 UNK        -0.1800 
     12 Cl12        2.6014   -1.4651    0.3711 Cl        1 UNK        -0.1800 
     13 H13         0.7036    2.9566   -0.4651 H         1 UNK         0.1150 
     14 H14        -1.5173    3.3406   -0.1089 H         1 UNK         0.4350 
     15 H15        -3.4177    0.5524   -0.6861 H         1 UNK         0.0300 
     16 H16        -4.1444   -0.7901    0.1911 H         1 UNK         0.0300 
     17 H17        -2.7714   -1.0862   -0.8733 H         1 UNK         0.0300 
@<TRIPOS>BOND
     1    1    2 ar   
     2    1    3 ar   
     3    1    4 1    
     4    2    5 ar   
     5    2    6 1    
     6    3    7 ar   
     7    3   13 1    
     8    4   14 1    
     9    5    8 ar   
    10    5    9 1    
    11    6   10 1    
    12    7    8 ar   
    13    7   11 1    
    14    8   12 1    
    15   10   15 1    
    16   10   16 1    
    17   10   17 1    
@<TRIPOS>SUBSTRUCTURE
     1 UNK         1 GROUP             0       ****    0 ROOT    
