@<TRIPOS>MOLECULE
title: molecule 1
82   81    1
SMALL
USER_CHARGES


@<TRIPOS>ATOM
      1 C1          7.6751  -13.0580   -0.3317 C.3       1 UNK        -0.1800 
      2 C2          7.4680  -11.7853    0.5036 C.3       1 UNK        -0.0600 
      3 C3          8.8193  -11.2527    1.0097 C.3       1 UNK        -0.1800 
      4 C4          6.6794  -10.7294   -0.2985 C.3       1 UNK        -0.1200 
      5 C5          6.2015   -9.5299    0.5379 C.3       1 UNK        -0.1200 
      6 C6          5.3397   -8.5533   -0.2757 C.3       1 UNK        -0.1200 
      7 C7          4.8633   -7.3534    0.5559 C.3       1 UNK        -0.1200 
      8 C8          4.0013   -6.3770   -0.2576 C.3       1 UNK        -0.1200 
      9 C9          3.5245   -5.1774    0.5741 C.3       1 UNK        -0.1200 
     10 C10         2.6622   -4.2012   -0.2393 C.3       1 UNK        -0.1200 
     11 C11         2.1849   -3.0018    0.5925 C.3       1 UNK        -0.1200 
     12 C12         1.3225   -2.0257   -0.2200 C.3       1 UNK        -0.1200 
     13 C13         0.8489   -0.8307    0.6180 C.3       1 UNK         0.0800 
     14 N14         0.0376    0.0521   -0.2039 N.3       1 UNK        -0.7800 
     15 C15        -0.4100    1.1907    0.5810 C.3       1 UNK         0.0800 
     16 C16        -1.2594    2.1203   -0.2958 C.3       1 UNK        -0.1200 
     17 C17        -1.7676    3.3460    0.4764 C.3       1 UNK        -0.1200 
     18 C18        -2.6194    4.2811   -0.3944 C.3       1 UNK        -0.1200 
     19 C19        -3.1272    5.5068    0.3788 C.3       1 UNK        -0.1200 
     20 C20        -3.9793    6.4420   -0.4917 C.3       1 UNK        -0.1200 
     21 C21        -4.4872    7.6675    0.2819 C.3       1 UNK        -0.1200 
     22 C22        -5.3397    8.6026   -0.5883 C.3       1 UNK        -0.1200 
     23 C23        -5.8478    9.8280    0.1856 C.3       1 UNK        -0.1200 
     24 C24        -6.7040   10.7613   -0.6876 C.3       1 UNK        -0.1200 
     25 C25        -7.1552   12.0541    0.0230 C.3       1 UNK        -0.0600 
     26 C26        -7.7697   13.0398   -0.9827 C.3       1 UNK        -0.1800 
     27 C27        -8.1392   11.7817    1.1733 C.3       1 UNK        -0.1800 
     28 H28         6.7219  -13.4799   -0.6516 H         1 UNK         0.0600 
     29 H29         8.2655  -12.8537   -1.2255 H         1 UNK         0.0600 
     30 H30         8.1952  -13.8256    0.2422 H         1 UNK         0.0600 
     31 H31         6.8715  -12.0646    1.3732 H         1 UNK         0.0600 
     32 H32         8.6923  -10.4171    1.6974 H         1 UNK         0.0600 
     33 H33         9.3681  -12.0268    1.5467 H         1 UNK         0.0600 
     34 H34         9.4465  -10.9147    0.1842 H         1 UNK         0.0600 
     35 H35         7.2834  -10.3769   -1.1357 H         1 UNK         0.0600 
     36 H36         5.8037  -11.2069   -0.7403 H         1 UNK         0.0600 
     37 H37         5.6296   -9.8892    1.3943 H         1 UNK         0.0600 
     38 H38         7.0593   -8.9921    0.9414 H         1 UNK         0.0600 
     39 H39         5.9098   -8.1960   -1.1342 H         1 UNK         0.0600 
     40 H40         4.4742   -9.0813   -0.6781 H         1 UNK         0.0600 
     41 H41         4.2937   -7.7109    1.4147 H         1 UNK         0.0600 
     42 H42         5.7285   -6.8246    0.9580 H         1 UNK         0.0600 
     43 H43         4.5710   -6.0194   -1.1162 H         1 UNK         0.0600 
     44 H44         3.1362   -6.9059   -0.6598 H         1 UNK         0.0600 
     45 H45         2.9549   -5.5352    1.4328 H         1 UNK         0.0600 
     46 H46         4.3895   -4.6484    0.9763 H         1 UNK         0.0600 
     47 H47         3.2318   -3.8433   -1.0979 H         1 UNK         0.0600 
     48 H48         1.7974   -4.7303   -0.6417 H         1 UNK         0.0600 
     49 H49         1.6151   -3.3596    1.4511 H         1 UNK         0.0600 
     50 H50         3.0495   -2.4723    0.9949 H         1 UNK         0.0600 
     51 H51         1.8928   -1.6681   -1.0786 H         1 UNK         0.0600 
     52 H52         0.4571   -2.5555   -0.6212 H         1 UNK         0.0600 
     53 H53         0.2644   -1.1786    1.4709 H         1 UNK         0.0600 
     54 H54         1.7081   -0.2838    1.0091 H         1 UNK         0.0600 
     55 H55         0.5766    0.3733   -0.9955 H         1 UNK         0.3800 
     56 H56        -0.9941    0.8420    1.4339 H         1 UNK         0.0600 
     57 H57         0.4533    1.7308    0.9723 H         1 UNK         0.0600 
     58 H58        -0.6728    2.4516   -1.1539 H         1 UNK         0.0600 
     59 H59        -2.1102    1.5670   -0.6964 H         1 UNK         0.0600 
     60 H60        -2.3540    3.0153    1.3346 H         1 UNK         0.0600 
     61 H61        -0.9174    3.8988    0.8781 H         1 UNK         0.0600 
     62 H62        -2.0330    4.6113   -1.2528 H         1 UNK         0.0600 
     63 H63        -3.4696    3.7280   -0.7958 H         1 UNK         0.0600 
     64 H64        -3.7136    5.1765    1.2372 H         1 UNK         0.0600 
     65 H65        -2.2771    6.0599    0.7802 H         1 UNK         0.0600 
     66 H66        -3.3930    6.7725   -1.3500 H         1 UNK         0.0600 
     67 H67        -4.8294    5.8889   -0.8931 H         1 UNK         0.0600 
     68 H68        -5.0731    7.3368    1.1403 H         1 UNK         0.0600 
     69 H69        -3.6371    8.2208    0.6831 H         1 UNK         0.0600 
     70 H70        -4.7534    8.9328   -1.4468 H         1 UNK         0.0600 
     71 H71        -6.1899    8.0495   -0.9894 H         1 UNK         0.0600 
     72 H72        -6.4259    9.4882    1.0448 H         1 UNK         0.0600 
     73 H73        -4.9969   10.3822    0.5835 H         1 UNK         0.0600 
     74 H74        -6.1218   11.0311   -1.5699 H         1 UNK         0.0600 
     75 H75        -7.5765   10.2211   -1.0575 H         1 UNK         0.0600 
     76 H76        -6.2714   12.5343    0.4453 H         1 UNK         0.0600 
     77 H77        -8.0533   13.9735   -0.4961 H         1 UNK         0.0600 
     78 H78        -7.0631   13.2870   -1.7755 H         1 UNK         0.0600 
     79 H79        -8.6626   12.6238   -1.4504 H         1 UNK         0.0600 
     80 H80        -8.4646   12.7128    1.6381 H         1 UNK         0.0600 
     81 H81        -9.0290   11.2603    0.8188 H         1 UNK         0.0600 
     82 H82        -7.6863   11.1756    1.9574 H         1 UNK         0.0600 
@<TRIPOS>BOND
     1    1    2 1    
     2    1   28 1    
     3    1   29 1    
     4    1   30 1    
     5    2    3 1    
     6    2    4 1    
     7    2   31 1    
     8    3   32 1    
     9    3   33 1    
    10    3   34 1    
    11    4    5 1    
    12    4   35 1    
    13    4   36 1    
    14    5    6 1    
    15    5   37 1    
    16    5   38 1    
    17    6    7 1    
    18    6   39 1    
    19    6   40 1    
    20    7    8 1    
    21    7   41 1    
    22    7   42 1    
    23    8    9 1    
    24    8   43 1    
    25    8   44 1    
    26    9   10 1    
    27    9   45 1    
    28    9   46 1    
    29   10   11 1    
    30   10   47 1    
    31   10   48 1    
    32   11   12 1    
    33   11   49 1    
    34   11   50 1    
    35   12   13 1    
    36   12   51 1    
    37   12   52 1    
    38   13   14 1    
    39   13   53 1    
    40   13   54 1    
    41   14   15 1    
    42   14   55 1    
    43   15   16 1    
    44   15   56 1    
    45   15   57 1    
    46   16   17 1    
    47   16   58 1    
    48   16   59 1    
    49   17   18 1    
    50   17   60 1    
    51   17   61 1    
    52   18   19 1    
    53   18   62 1    
    54   18   63 1    
    55   19   20 1    
    56   19   64 1    
    57   19   65 1    
    58   20   21 1    
    59   20   66 1    
    60   20   67 1    
    61   21   22 1    
    62   21   68 1    
    63   21   69 1    
    64   22   23 1    
    65   22   70 1    
    66   22   71 1    
    67   23   24 1    
    68   23   72 1    
    69   23   73 1    
    70   24   25 1    
    71   24   74 1    
    72   24   75 1    
    73   25   26 1    
    74   25   27 1    
    75   25   76 1    
    76   26   77 1    
    77   26   78 1    
    78   26   79 1    
    79   27   80 1    
    80   27   81 1    
    81   27   82 1    
@<TRIPOS>SUBSTRUCTURE
     1 UNK         1 GROUP             0       ****    0 ROOT    
