@<TRIPOS>MOLECULE
title: molecule 1
19   19    1
SMALL
USER_CHARGES


@<TRIPOS>ATOM
      1 C1          3.6275   -1.8663    0.1489 C.ar      1 UNK        -0.1150 
      2 C2          3.6264   -3.2768    0.1541 C.ar      1 UNK        -0.1150 
      3 C3          2.4007   -1.1647    0.0903 C.ar      1 UNK         0.1500 
      4 C4          4.9464   -1.1169    0.2062 C.3       1 UNK        -0.0650 
      5 C5          2.4116   -3.9851    0.1013 C.ar      1 UNK        -0.1150 
      6 C6          1.1798   -1.8764    0.0373 C.ar      1 UNK        -0.1150 
      7 O7          2.3940    0.2024    0.0849 O.3       1 UNK        -0.5850 
      8 C8          1.1913   -3.2868    0.0430 C.ar      1 UNK        -0.1150 
      9 C9         -0.1433   -1.1355   -0.0258 C.3       1 UNK        -0.0650 
     10 H10         4.5574   -3.8227    0.1986 H         1 UNK         0.1150 
     11 H11         4.9846   -0.4819    1.0918 H         1 UNK         0.0600 
     12 H12         5.7929   -1.8030    0.2474 H         1 UNK         0.0600 
     13 H13         5.0652   -0.4885   -0.6768 H         1 UNK         0.0600 
     14 H14         2.4157   -5.0652    0.1055 H         1 UNK         0.1150 
     15 H15         3.2615    0.5743    0.1231 H         1 UNK         0.4350 
     16 H16         0.2642   -3.8397    0.0028 H         1 UNK         0.1150 
     17 H17        -0.1824   -0.5060   -0.9152 H         1 UNK         0.0600 
     18 H18        -0.9868   -1.8254   -0.0617 H         1 UNK         0.0600 
     19 H19        -0.2629   -0.4994    0.8516 H         1 UNK         0.0600 
@<TRIPOS>BOND
     1    1    2 ar   
     2    1    3 ar   
     3    1    4 1    
     4    2    5 ar   
     5    2   10 1    
     6    3    6 ar   
     7    3    7 1    
     8    4   11 1    
     9    4   12 1    
    10    4   13 1    
    11    5    8 ar   
    12    5   14 1    
    13    6    8 ar   
    14    6    9 1    
    15    7   15 1    
    16    8   16 1    
    17    9   17 1    
    18    9   18 1    
    19    9   19 1    
@<TRIPOS>SUBSTRUCTURE
     1 UNK         1 GROUP             0       ****    0 ROOT    
