@<TRIPOS>MOLECULE
title: molecule 1
20   20    1
SMALL
USER_CHARGES


@<TRIPOS>ATOM
      1 N1          0.4992    2.2397    0.2492 N.pl3     1 UNK        -0.9000 
      2 C2         -0.1588    1.0167    0.1102 C.ar      1 UNK         0.1800 
      3 C3          0.5429   -0.1631   -0.2439 C.ar      1 UNK        -0.1150 
      4 C4         -1.5503    0.9657    0.3328 C.ar      1 UNK        -0.1150 
      5 C5         -0.1638   -1.3794   -0.3650 C.ar      1 UNK        -0.1150 
      6 C6          2.0445   -0.1567   -0.4940 C.3       1 UNK        -0.0050 
      7 C7         -2.2467   -0.2512    0.2074 C.ar      1 UNK        -0.1150 
      8 C8         -1.5528   -1.4244   -0.1409 C.ar      1 UNK        -0.1150 
      9 C9          2.8529   -0.2956    0.8016 C.3       1 UNK        -0.1800 
     10 H10         0.0172    3.0514    0.6077 H         1 UNK         0.3600 
     11 H11         1.5069    2.2923    0.2125 H         1 UNK         0.3600 
     12 H12        -2.0912    1.8613    0.6022 H         1 UNK         0.1150 
     13 H13         0.3598   -2.2862   -0.6303 H         1 UNK         0.1150 
     14 H14         2.2979   -0.9758   -1.1680 H         1 UNK         0.0600 
     15 H15         2.3297    0.7551   -1.0192 H         1 UNK         0.0600 
     16 H16        -3.3125   -0.2841    0.3795 H         1 UNK         0.1150 
     17 H17        -2.0855   -2.3592   -0.2361 H         1 UNK         0.1150 
     18 H18         3.9229   -0.2950    0.5935 H         1 UNK         0.0600 
     19 H19         2.6469    0.5267    1.4872 H         1 UNK         0.0600 
     20 H20         2.6141   -1.2272    1.3153 H         1 UNK         0.0600 
@<TRIPOS>BOND
     1    1    2 1    
     2    1   10 1    
     3    1   11 1    
     4    2    3 ar   
     5    2    4 ar   
     6    3    5 ar   
     7    3    6 1    
     8    4    7 ar   
     9    4   12 1    
    10    5    8 ar   
    11    5   13 1    
    12    6    9 1    
    13    6   14 1    
    14    6   15 1    
    15    7    8 ar   
    16    7   16 1    
    17    8   17 1    
    18    9   18 1    
    19    9   19 1    
    20    9   20 1    
@<TRIPOS>SUBSTRUCTURE
     1 UNK         1 GROUP             0       ****    0 ROOT    
