@<TRIPOS>MOLECULE
title: molecule 1
41   41    1
SMALL
USER_CHARGES


@<TRIPOS>ATOM
      1 N1          3.8990   -3.0728   -0.4794 N.am      1 UNK        -0.0317 
      2 C2          2.7220   -3.7265    0.0004 C.ar      1 UNK        -0.0383 
      3 C3          4.8419   -3.7560   -1.1875 C.2       1 UNK         0.5000 
      4 C4          3.9689   -1.6134   -0.2225 C.3       1 UNK         0.0100 
      5 C5          2.7199   -4.3785    1.2652 C.ar      1 UNK        -0.1150 
      6 C6          1.5336   -3.7135   -0.7802 C.ar      1 UNK        -0.1150 
      7 O7          5.8677   -3.2243   -1.6143 O.2       1 UNK        -0.5000 
      8 C8          4.6263   -5.2578   -1.4780 C.3       1 UNK         0.1400 
      9 C9          4.9258   -1.2397    0.9254 C.2       1 UNK         0.5100 
     10 C10         4.2169   -0.7595   -1.4877 C.3       1 UNK        -0.1800 
     11 C11         1.5444   -5.0049    1.7277 C.ar      1 UNK        -0.1150 
     12 C12         3.9517   -4.4253    2.1550 C.3       1 UNK        -0.0650 
     13 C13         0.3700   -4.3468   -0.2977 C.ar      1 UNK        -0.1150 
     14 C14         1.4707   -3.0274   -2.1348 C.3       1 UNK        -0.0650 
     15 O15         5.8494   -5.9057   -1.8171 O.3       1 UNK        -0.4000 
     16 O16         5.8652   -1.9354    1.3155 O.2       1 UNK        -0.4300 
     17 O17         4.6022   -0.0346    1.4230 O.3       1 UNK        -0.3300 
     18 C18         0.3741   -4.9910    0.9507 C.ar      1 UNK        -0.1150 
     19 C19         6.7031   -6.1660   -0.7100 C.3       1 UNK         0.1100 
     20 C20         5.3638    0.5108    2.4862 C.3       1 UNK         0.1600 
     21 H21         2.9694   -1.3350    0.1154 H         1 UNK         0.0600 
     22 H22         4.1637   -5.7866   -0.6447 H         1 UNK         0.0300 
     23 H23         3.9476   -5.3440   -2.3266 H         1 UNK         0.0300 
     24 H24         3.9821    0.2879   -1.2961 H         1 UNK         0.0600 
     25 H25         5.2553   -0.7931   -1.8171 H         1 UNK         0.0600 
     26 H26         3.5936   -1.0802   -2.3211 H         1 UNK         0.0600 
     27 H27         1.5343   -5.5005    2.6876 H         1 UNK         0.1150 
     28 H28         4.0527   -3.4903    2.7052 H         1 UNK         0.0600 
     29 H29         3.8766   -5.2331    2.8833 H         1 UNK         0.0600 
     30 H30         4.8621   -4.5936    1.5809 H         1 UNK         0.0600 
     31 H31        -0.5368   -4.3397   -0.8848 H         1 UNK         0.1150 
     32 H32         1.4088   -1.9473   -2.0049 H         1 UNK         0.0600 
     33 H33         2.3467   -3.2593   -2.7401 H         1 UNK         0.0600 
     34 H34         0.5929   -3.3466   -2.6973 H         1 UNK         0.0600 
     35 H35        -0.5218   -5.4729    1.3136 H         1 UNK         0.1150 
     36 H36         7.5972   -6.6841   -1.0562 H         1 UNK         0.0300 
     37 H37         7.0235   -5.2510   -0.2111 H         1 UNK         0.0300 
     38 H38         6.2098   -6.8055    0.0229 H         1 UNK         0.0300 
     39 H39         4.9649    1.4858    2.7657 H         1 UNK         0.0300 
     40 H40         5.3267   -0.1366    3.3632 H         1 UNK         0.0300 
     41 H41         6.4058    0.6410    2.1913 H         1 UNK         0.0300 
@<TRIPOS>BOND
     1    1    2 1    
     2    1    3 am   BACKBONE|DICT|INTERRES
     3    1    4 1    
     4    2    5 ar   
     5    2    6 ar   
     6    3    7 2    
     7    3    8 1    
     8    4    9 1    
     9    4   10 1    
    10    4   21 1    
    11    5   11 ar   
    12    5   12 1    
    13    6   13 ar   
    14    6   14 1    
    15    8   15 1    
    16    8   22 1    
    17    8   23 1    
    18    9   16 2    
    19    9   17 1    
    20   10   24 1    
    21   10   25 1    
    22   10   26 1    
    23   11   18 ar   
    24   11   27 1    
    25   12   28 1    
    26   12   29 1    
    27   12   30 1    
    28   13   18 ar   
    29   13   31 1    
    30   14   32 1    
    31   14   33 1    
    32   14   34 1    
    33   15   19 1    
    34   17   20 1    
    35   18   35 1    
    36   19   36 1    
    37   19   37 1    
    38   19   38 1    
    39   20   39 1    
    40   20   40 1    
    41   20   41 1    
@<TRIPOS>SUBSTRUCTURE
     1 UNK         1 GROUP             0       ****    0 ROOT    
