@<TRIPOS>MOLECULE
title: molecule 1
30   31    1
SMALL
USER_CHARGES


@<TRIPOS>ATOM
      1 N1          4.5215    0.2074    1.1151 N.pl3     1 UNK        -0.9200 
      2 C2          3.4065   -0.4623    0.6155 C.ar      1 UNK         0.8640 
      3 C3          3.4905   -1.8005    0.1571 C.ar      1 UNK        -0.4920 
      4 N4          2.2525    0.2351    0.6008 N.ar      1 UNK        -0.8390 
      5 C5          2.2730   -2.3502   -0.3217 C.ar      1 UNK         0.5490 
      6 C6          4.7522   -2.5601    0.1822 C.ar      1 UNK         0.0000 
      7 C7          1.1785   -0.3955    0.1320 C.ar      1 UNK         1.0420 
      8 N8          1.1213   -1.6429   -0.3273 N.ar      1 UNK        -0.8390 
      9 C9          2.1669   -3.7719   -0.8528 C.3       1 UNK        -0.0050 
     10 C10         5.7059   -2.3994   -0.8459 C.ar      1 UNK        -0.1150 
     11 C11         5.0270   -3.4603    1.2339 C.ar      1 UNK        -0.1150 
     12 N12         0.0062    0.3148    0.1208 N.pl3     1 UNK        -0.9200 
     13 C13         1.6334   -4.7501    0.2006 C.3       1 UNK        -0.1800 
     14 C14         6.9116   -3.1269   -0.8260 C.ar      1 UNK        -0.1150 
     15 C15         6.2312   -4.1901    1.2576 C.ar      1 UNK        -0.1150 
     16 C16         7.1750   -4.0239    0.2265 C.ar      1 UNK         0.1800 
     17 Cl17        8.6511   -4.9167    0.2530 Cl        1 UNK        -0.1800 
     18 H18         4.4545    1.1581    1.4476 H         1 UNK         0.3600 
     19 H19         5.4238   -0.2420    1.1701 H         1 UNK         0.3600 
     20 H20         1.5023   -3.7735   -1.7177 H         1 UNK         0.0600 
     21 H21         3.1328   -4.1146   -1.2234 H         1 UNK         0.0600 
     22 H22         5.5115   -1.7138   -1.6579 H         1 UNK         0.1150 
     23 H23         4.3092   -3.5932    2.0303 H         1 UNK         0.1150 
     24 H24        -0.0157    1.2648    0.4603 H         1 UNK         0.3600 
     25 H25        -0.8428   -0.1115   -0.2194 H         1 UNK         0.3600 
     26 H26         1.5611   -5.7583   -0.2074 H         1 UNK         0.0600 
     27 H27         2.2888   -4.7893    1.0706 H         1 UNK         0.0600 
     28 H28         0.6403   -4.4571    0.5425 H         1 UNK         0.0600 
     29 H29         7.6331   -2.9958   -1.6190 H         1 UNK         0.1150 
     30 H30         6.4294   -4.8765    2.0676 H         1 UNK         0.1150 
@<TRIPOS>BOND
     1    1    2 1    
     2    1   18 1    
     3    1   19 1    
     4    2    3 ar   
     5    2    4 ar   
     6    3    5 ar   
     7    3    6 1    
     8    4    7 ar   
     9    5    8 ar   
    10    5    9 1    
    11    6   10 ar   
    12    6   11 ar   
    13    7    8 ar   
    14    7   12 1    
    15    9   13 1    
    16    9   20 1    
    17    9   21 1    
    18   10   14 ar   
    19   10   22 1    
    20   11   15 ar   
    21   11   23 1    
    22   12   24 1    
    23   12   25 1    
    24   13   26 1    
    25   13   27 1    
    26   13   28 1    
    27   14   16 ar   
    28   14   29 1    
    29   15   16 ar   
    30   15   30 1    
    31   16   17 1    
@<TRIPOS>SUBSTRUCTURE
     1 UNK         1 GROUP             0       ****    0 ROOT    
