@<TRIPOS>MOLECULE
title: molecule 1
21   22    1
SMALL
USER_CHARGES


@<TRIPOS>ATOM
      1 C1          2.4303   -5.3683    0.0995 C.ar      1 UNK        -0.1150 
      2 C2          1.2142   -6.0761    0.0868 C.ar      1 UNK        -0.1150 
      3 C3          2.4379   -3.9542    0.1021 C.ar      1 UNK        -0.1150 
      4 C4         -0.0054   -5.3767    0.0767 C.ar      1 UNK        -0.1150 
      5 C5          1.2062   -3.2465    0.0918 C.ar      1 UNK        -0.1150 
      6 C6          3.7358   -3.2243    0.1155 C.2       1 UNK         0.5850 
      7 C7         -0.0095   -3.9694    0.0792 C.ar      1 UNK        -0.1150 
      8 C8          1.1768   -1.7543    0.0943 C.2       1 UNK         0.5850 
      9 C9          3.6569   -1.7516    0.1174 C.2       1 UNK        -0.1150 
     10 O10         4.8226   -3.8012    0.1246 O.2       1 UNK        -0.4700 
     11 O11         0.1176   -1.1254    0.0855 O.2       1 UNK        -0.4700 
     12 C12         2.4930   -1.0644    0.1078 C.2       1 UNK         0.0000 
     13 C13         2.4528    0.4549    0.1102 C.3       1 UNK        -0.1800 
     14 H14         3.3571   -5.9240    0.1071 H         1 UNK         0.1150 
     15 H15         1.2178   -7.1562    0.0849 H         1 UNK         0.1150 
     16 H16        -0.9392   -5.9194    0.0670 H         1 UNK         0.1150 
     17 H17        -0.9583   -3.4522    0.0712 H         1 UNK         0.1150 
     18 H18         4.5940   -1.2142    0.1272 H         1 UNK         0.1150 
     19 H19         3.4580    0.8775    0.1203 H         1 UNK         0.0600 
     20 H20         1.9419    0.8267   -0.7788 H         1 UNK         0.0600 
     21 H21         1.9254    0.8235    0.9907 H         1 UNK         0.0600 
@<TRIPOS>BOND
     1    1    2 ar   
     2    1    3 ar   
     3    1   14 1    
     4    2    4 ar   
     5    2   15 1    
     6    3    5 ar   
     7    3    6 1    
     8    4    7 ar   
     9    4   16 1    
    10    5    7 ar   
    11    5    8 1    
    12    6    9 1    
    13    6   10 2    
    14    7   17 1    
    15    8   11 2    
    16    8   12 1    
    17    9   12 2    
    18    9   18 1    
    19   12   13 1    
    20   13   19 1    
    21   13   20 1    
    22   13   21 1    
@<TRIPOS>SUBSTRUCTURE
     1 UNK         1 GROUP             0       ****    0 ROOT    
