@<TRIPOS>MOLECULE
title: molecule 1
18   18    1
SMALL
USER_CHARGES


@<TRIPOS>ATOM
      1 C1          1.3636   -1.6705    0.5226 C.3       1 UNK         0.0970 
      2 C2          1.3735   -3.1300    0.0239 C.3       1 UNK         0.0970 
      3 C3          2.6251   -0.8923    0.0873 C.3       1 UNK         0.0970 
      4 Cl4        -0.1108   -0.8205   -0.0240 Cl        1 UNK        -0.2000 
      5 C5          2.6438   -3.8579    0.5088 C.3       1 UNK         0.0970 
      6 Cl6        -0.0733   -3.9806    0.6378 Cl        1 UNK        -0.2000 
      7 C7          3.9304   -1.6362    0.4592 C.3       1 UNK         0.0970 
      8 Cl8         2.5847   -0.5234   -1.6626 Cl        1 UNK        -0.2000 
      9 C9          3.9377   -3.1351    0.0732 C.3       1 UNK         0.0970 
     10 Cl10        2.6599   -5.5545   -0.0538 Cl        1 UNK        -0.2000 
     11 Cl11        4.1991   -1.4900    2.2187 Cl        1 UNK        -0.2000 
     12 Cl12        4.2299   -3.3345   -1.6803 Cl        1 UNK        -0.2000 
     13 H13         1.3175   -1.6776    1.6123 H         1 UNK         0.1030 
     14 H14         1.3173   -3.1560   -1.0650 H         1 UNK         0.1030 
     15 H15         2.6238    0.0812    0.5790 H         1 UNK         0.1030 
     16 H16         2.6210   -3.9049    1.5983 H         1 UNK         0.1030 
     17 H17         4.7813   -1.1353   -0.0040 H         1 UNK         0.1030 
     18 H18         4.7886   -3.6175    0.5557 H         1 UNK         0.1030 
@<TRIPOS>BOND
     1    1    2 1    
     2    1    3 1    
     3    1    4 1    
     4    1   13 1    
     5    2    5 1    
     6    2    6 1    
     7    2   14 1    
     8    3    7 1    
     9    3    8 1    
    10    3   15 1    
    11    5    9 1    
    12    5   10 1    
    13    5   16 1    
    14    7   11 1    
    15    7    9 1    
    16    7   17 1    
    17    9   12 1    
    18    9   18 1    
@<TRIPOS>SUBSTRUCTURE
     1 UNK         1 GROUP             0       ****    0 ROOT    
