@<TRIPOS>MOLECULE
title: molecule 1
26   26    1
SMALL
USER_CHARGES


@<TRIPOS>ATOM
      1 C1          1.2975   -1.1058   -0.0087 C.2       1 UNK         0.0000 
      2 C2          2.4315   -1.7176    0.3808 C.2       1 UNK        -0.1150 
      3 C3         -0.0287   -1.8442   -0.0650 C.3       1 UNK        -0.1200 
      4 C4          1.2623    0.3484   -0.4331 C.3       1 UNK        -0.1800 
      5 C5          2.5382   -3.1867    0.7644 C.3       1 UNK        -0.1200 
      6 C6         -0.0002   -3.1471    0.7491 C.3       1 UNK        -0.1200 
      7 C7          1.2553   -3.9644    0.4599 C.2       1 UNK         0.0000 
      8 C8          1.2433   -5.2352   -0.0175 C.2       1 UNK         0.0000 
      9 C9          2.4968   -6.0765   -0.2132 C.3       1 UNK        -0.1800 
     10 C10        -0.0223   -5.9892   -0.4000 C.3       1 UNK        -0.1800 
     11 H11         3.3530   -1.1553    0.4196 H         1 UNK         0.1150 
     12 H12        -0.2631   -2.0541   -1.1091 H         1 UNK         0.0600 
     13 H13        -0.8207   -1.1980    0.3151 H         1 UNK         0.0600 
     14 H14         0.5903    0.9150    0.2117 H         1 UNK         0.0600 
     15 H15         2.2512    0.8045   -0.3774 H         1 UNK         0.0600 
     16 H16         0.9062    0.4329   -1.4601 H         1 UNK         0.0600 
     17 H17         2.7595   -3.2558    1.8296 H         1 UNK         0.0600 
     18 H18         3.3915   -3.5896    0.2224 H         1 UNK         0.0600 
     19 H19        -0.9257   -3.6989    0.6052 H         1 UNK         0.0600 
     20 H20         0.0190   -2.8988    1.8112 H         1 UNK         0.0600 
     21 H21         2.3126   -7.0990    0.1180 H         1 UNK         0.0600 
     22 H22         2.7678   -6.1085   -1.2686 H         1 UNK         0.0600 
     23 H23         3.3532   -5.7198    0.3559 H         1 UNK         0.0600 
     24 H24         0.1777   -6.6523   -1.2422 H         1 UNK         0.0600 
     25 H25        -0.3644   -6.6008    0.4350 H         1 UNK         0.0600 
     26 H26        -0.8340   -5.3366   -0.7151 H         1 UNK         0.0600 
@<TRIPOS>BOND
     1    1    2 2    
     2    1    3 1    
     3    1    4 1    
     4    2    5 1    
     5    2   11 1    
     6    3    6 1    
     7    3   12 1    
     8    3   13 1    
     9    4   14 1    
    10    4   15 1    
    11    4   16 1    
    12    5    7 1    
    13    5   17 1    
    14    5   18 1    
    15    6    7 1    
    16    6   19 1    
    17    6   20 1    
    18    7    8 2    
    19    8    9 1    
    20    8   10 1    
    21    9   21 1    
    22    9   22 1    
    23    9   23 1    
    24   10   24 1    
    25   10   25 1    
    26   10   26 1    
@<TRIPOS>SUBSTRUCTURE
     1 UNK         1 GROUP             0       ****    0 ROOT    
