@<TRIPOS>MOLECULE
title: molecule 1
20   20    1
SMALL
USER_CHARGES


@<TRIPOS>ATOM
      1 N1          6.2739   -1.1156    0.3561 N.pl3     1 UNK        -0.9000 
      2 C2          4.8948   -1.0300    0.1734 C.ar      1 UNK         0.1800 
      3 C3          4.0774   -2.1483    0.4330 C.ar      1 UNK        -0.1150 
      4 C4          4.3147    0.1751   -0.2706 C.ar      1 UNK        -0.1150 
      5 C5          2.6836   -2.0617    0.2485 C.ar      1 UNK        -0.1150 
      6 C6          2.9209    0.2615   -0.4551 C.ar      1 UNK        -0.1150 
      7 C7          2.1007   -0.8568   -0.1971 C.ar      1 UNK        -0.1150 
      8 C8          0.5995   -0.7627   -0.3926 C.3       1 UNK        -0.0050 
      9 C9         -0.1230   -0.3039    0.8787 C.3       1 UNK        -0.1800 
     10 H10         6.8797   -0.3260    0.1843 H         1 UNK         0.3600 
     11 H11         6.7122   -1.9655    0.6808 H         1 UNK         0.3600 
     12 H12         4.5140   -3.0755    0.7745 H         1 UNK         0.1150 
     13 H13         4.9341    1.0372   -0.4709 H         1 UNK         0.1150 
     14 H14         2.0632   -2.9224    0.4515 H         1 UNK         0.1150 
     15 H15         2.4832    1.1892   -0.7937 H         1 UNK         0.1150 
     16 H16         0.3861   -0.0721   -1.2094 H         1 UNK         0.0600 
     17 H17         0.2163   -1.7346   -0.7058 H         1 UNK         0.0600 
     18 H18        -1.1989   -0.2439    0.7139 H         1 UNK         0.0600 
     19 H19         0.0497   -0.9978    1.7019 H         1 UNK         0.0600 
     20 H20         0.2213    0.6818    1.1932 H         1 UNK         0.0600 
@<TRIPOS>BOND
     1    1    2 1    
     2    1   10 1    
     3    1   11 1    
     4    2    3 ar   
     5    2    4 ar   
     6    3    5 ar   
     7    3   12 1    
     8    4    6 ar   
     9    4   13 1    
    10    5    7 ar   
    11    5   14 1    
    12    6    7 ar   
    13    6   15 1    
    14    7    8 1    
    15    8    9 1    
    16    8   16 1    
    17    8   17 1    
    18    9   18 1    
    19    9   19 1    
    20    9   20 1    
@<TRIPOS>SUBSTRUCTURE
     1 UNK         1 GROUP             0       ****    0 ROOT    
