@<TRIPOS>MOLECULE
title: molecule 1
16   15    1
SMALL
USER_CHARGES


@<TRIPOS>ATOM
      1 C1          2.9628    1.9278   -0.3603 C.3       1 UNK         0.1002 
      2 C2          1.6443    2.2436    0.3614 C.3       1 UNK        -0.1200 
      3 N3          3.8890    1.2969    0.5420 N.2       1 UNK        -0.4565 
      4 C4          0.6192    2.9238   -0.5572 C.3       1 UNK        -0.1200 
      5 C5          4.3434    0.2071    0.8434 C.1       1 UNK         0.2438 
      6 C6         -0.6974    3.2391    0.1614 C.3       1 UNK        -0.1800 
      7 S7          4.8274   -1.2595    1.2330 S.2       1 UNK        -0.0075 
      8 H8          2.7770    1.2778   -1.2166 H         1 UNK         0.0600 
      9 H9          3.4054    2.8444   -0.7513 H         1 UNK         0.0600 
     10 H10         1.2172    1.3219    0.7593 H         1 UNK         0.0600 
     11 H11         1.8443    2.8869    1.2196 H         1 UNK         0.0600 
     12 H12         1.0408    3.8475   -0.9553 H         1 UNK         0.0600 
     13 H13         0.4149    2.2828   -1.4155 H         1 UNK         0.0600 
     14 H14        -1.4036    3.7206   -0.5154 H         1 UNK         0.0600 
     15 H15        -1.1666    2.3309    0.5405 H         1 UNK         0.0600 
     16 H16        -0.5348    3.9104    1.0050 H         1 UNK         0.0600 
@<TRIPOS>BOND
     1    1    2 1    
     2    1    3 1    
     3    1    8 1    
     4    1    9 1    
     5    2    4 1    
     6    2   10 1    
     7    2   11 1    
     8    3    5 2    
     9    4    6 1    
    10    4   12 1    
    11    4   13 1    
    12    5    7 2    
    13    6   14 1    
    14    6   15 1    
    15    6   16 1    
@<TRIPOS>SUBSTRUCTURE
     1 UNK         1 GROUP             0       ****    0 ROOT    
