@<TRIPOS>MOLECULE
title: molecule 1
11   10    1
SMALL
USER_CHARGES


@<TRIPOS>ATOM
      1 N1          2.0298    0.9991    0.0998 N.pl3     1 UNK        -0.4272 
      2 C2          0.6758    0.9411    0.0909 C.2       1 UNK         0.4157 
      3 C3          2.8010    2.2367    0.1057 C.3       1 UNK        -0.0280 
      4 N4          0.2719   -0.3430    0.0873 N.pl3     1 UNK        -0.7839 
      5 S5         -0.3948    2.2165    0.0848 S.2       1 UNK        -0.4762 
      6 H6          2.5481    0.1331    0.1025 H         1 UNK         0.2912 
      7 H7          3.8669    2.0091    0.1125 H         1 UNK         0.0600 
      8 H8          2.5877    2.8333   -0.7820 H         1 UNK         0.0600 
      9 H9          2.5761    2.8320    0.9914 H         1 UNK         0.0600 
     10 H10        -0.7181   -0.5423    0.0807 H         1 UNK         0.4142 
     11 H11         0.9506   -1.0895    0.0912 H         1 UNK         0.4142 
@<TRIPOS>BOND
     1    1    2 1    
     2    1    3 1    
     3    1    6 1    
     4    2    4 1    
     5    2    5 2    
     6    3    7 1    
     7    3    8 1    
     8    3    9 1    
     9    4   10 1    
    10    4   11 1    
@<TRIPOS>SUBSTRUCTURE
     1 UNK         1 GROUP             0       ****    0 ROOT    
