@<TRIPOS>MOLECULE
title: molecule 1
36   35    1
SMALL
USER_CHARGES


@<TRIPOS>ATOM
      1 N1          6.2222   -3.1773    0.1373 N.3       1 UNK        -0.6300 
      2 C2          4.7750   -3.4029    0.0963 C.3       1 UNK         0.0900 
      3 C3          6.9342   -4.4244    0.4680 C.3       1 UNK         0.0900 
      4 C4          6.7235   -2.5244   -1.0862 C.3       1 UNK         0.0900 
      5 C5          3.9223   -2.1159    0.1387 C.3       1 UNK         0.0900 
      6 C6          8.4413   -4.2473    0.6853 C.2       1 UNK         0.5200 
      7 C7          7.5935   -1.3079   -0.7601 C.2       1 UNK         0.5200 
      8 N8          2.4881   -2.2884    0.4192 N.3       1 UNK        -0.6300 
      9 O9          8.7076   -3.4682    1.7727 O.3       1 UNK        -0.5300 
     10 O10         9.2895   -4.7575   -0.0425 O.2       1 UNK        -0.4400 
     11 O11         6.8759   -0.3207   -0.1508 O.3       1 UNK        -0.5300 
     12 O12         8.7901   -1.2449   -1.0318 O.2       1 UNK        -0.4400 
     13 C13         1.8730   -0.9849    0.7117 C.3       1 UNK         0.0900 
     14 C14         1.7770   -3.0190   -0.6499 C.3       1 UNK         0.0900 
     15 C15         0.4651   -1.1028    1.3070 C.2       1 UNK         0.5200 
     16 C16         1.7890   -4.5402   -0.4554 C.2       1 UNK         0.5200 
     17 O17         0.4751   -1.7517    2.5067 O.3       1 UNK        -0.5300 
     18 O18        -0.5369   -0.6529    0.7563 O.2       1 UNK        -0.4400 
     19 O19         1.5159   -5.1846   -1.6248 O.3       1 UNK        -0.5300 
     20 O20         1.9960   -5.0970    0.6213 O.2       1 UNK        -0.4400 
     21 H21         4.5258   -4.0000   -0.7817 H         1 UNK         0.0600 
     22 H22         4.4898   -4.0006    0.9634 H         1 UNK         0.0600 
     23 H23         6.5249   -4.8554    1.3824 H         1 UNK         0.0600 
     24 H24         6.7775   -5.1628   -0.3197 H         1 UNK         0.0600 
     25 H25         7.2857   -3.2266   -1.7036 H         1 UNK         0.0600 
     26 H26         5.9064   -2.1782   -1.7180 H         1 UNK         0.0600 
     27 H27         4.3539   -1.4905    0.9220 H         1 UNK         0.0600 
     28 H28         4.0429   -1.5475   -0.7840 H         1 UNK         0.0600 
     29 H29         9.6350   -3.3504    1.9069 H         1 UNK         0.4500 
     30 H30         7.4093    0.4310    0.0552 H         1 UNK         0.4500 
     31 H31         2.4765   -0.4364    1.4359 H         1 UNK         0.0600 
     32 H32         1.8355   -0.3738   -0.1914 H         1 UNK         0.0600 
     33 H33         0.7249   -2.7404   -0.6923 H         1 UNK         0.0600 
     34 H34         2.1890   -2.7619   -1.6268 H         1 UNK         0.0600 
     35 H35        -0.3897   -1.8300    2.8780 H         1 UNK         0.4500 
     36 H36         1.5083   -6.1234   -1.5197 H         1 UNK         0.4500 
@<TRIPOS>BOND
     1    1    2 1    
     2    1    3 1    
     3    1    4 1    
     4    2    5 1    
     5    2   21 1    
     6    2   22 1    
     7    3    6 1    
     8    3   23 1    
     9    3   24 1    
    10    4    7 1    
    11    4   25 1    
    12    4   26 1    
    13    5    8 1    
    14    5   27 1    
    15    5   28 1    
    16    6    9 1    
    17    6   10 2    
    18    7   11 1    
    19    7   12 2    
    20    8   13 1    
    21    8   14 1    
    22    9   29 1    
    23   11   30 1    
    24   13   15 1    
    25   13   31 1    
    26   13   32 1    
    27   14   16 1    
    28   14   33 1    
    29   14   34 1    
    30   15   17 1    
    31   15   18 2    
    32   16   19 1    
    33   16   20 2    
    34   17   35 1    
    35   19   36 1    
@<TRIPOS>SUBSTRUCTURE
     1 UNK         1 GROUP             0       ****    0 ROOT    
