@<TRIPOS>MOLECULE
title: molecule 1
24   23    1
SMALL
USER_CHARGES


@<TRIPOS>ATOM
      1 S1          1.3588   -1.3883   -2.0718 S.2       1 UNK        -0.5895 
      2 P2          1.7900   -1.8150   -0.2064 P.3       1 UNK         1.0634 
      3 S3          2.1771   -3.8854    0.1609 S.3       1 UNK        -0.1050 
      4 O4          0.6633   -1.4521    0.9121 O.3       1 UNK        -0.4611 
      5 O5          3.1137   -1.0815    0.3945 O.3       1 UNK        -0.4611 
      6 C6          3.7143   -4.1080   -0.7746 C.3       1 UNK        -0.1125 
      7 C7         -0.6569   -1.9541    0.8201 C.3       1 UNK         0.0929 
      8 C8          3.4998   -1.2342    1.7479 C.3       1 UNK         0.0929 
      9 C9          4.3105   -5.4988   -0.5854 C.2       1 UNK         0.5000 
     10 O10         4.1874   -6.3475   -1.4676 O.2       1 UNK        -0.5000 
     11 N11         4.9564   -5.7217    0.5679 N.am      1 UNK        -0.5000 
     12 C12         5.5845   -6.9856    0.9210 C.3       1 UNK         0.0200 
     13 H13         3.5159   -3.9381   -1.8332 H         1 UNK         0.0600 
     14 H14         4.4394   -3.3560   -0.4620 H         1 UNK         0.0600 
     15 H15        -1.1869   -1.7705    1.7545 H         1 UNK         0.0600 
     16 H16        -1.2032   -1.4573    0.0180 H         1 UNK         0.0600 
     17 H17        -0.6630   -3.0279    0.6319 H         1 UNK         0.0600 
     18 H18         4.3332   -0.5672    1.9674 H         1 UNK         0.0600 
     19 H19         2.6823   -0.9842    2.4244 H         1 UNK         0.0600 
     20 H20         3.8238   -2.2543    1.9529 H         1 UNK         0.0600 
     21 H21         5.0127   -4.9716    1.2412 H         1 UNK         0.3000 
     22 H22         6.0414   -6.9121    1.9079 H         1 UNK         0.0600 
     23 H23         4.8494   -7.7911    0.9445 H         1 UNK         0.0600 
     24 H24         6.3632   -7.2462    0.2030 H         1 UNK         0.0600 
@<TRIPOS>BOND
     1    1    2 2    
     2    2    3 1    
     3    2    4 1    
     4    2    5 1    
     5    3    6 1    
     6    4    7 1    
     7    5    8 1    
     8    6    9 1    
     9    6   13 1    
    10    6   14 1    
    11    7   15 1    
    12    7   16 1    
    13    7   17 1    
    14    8   18 1    
    15    8   19 1    
    16    8   20 1    
    17    9   10 2    
    18    9   11 am   BACKBONE|DICT|INTERRES
    19   11   12 1    
    20   11   21 1    
    21   12   22 1    
    22   12   23 1    
    23   12   24 1    
@<TRIPOS>SUBSTRUCTURE
     1 UNK         1 GROUP             0       ****    0 ROOT    
