@<TRIPOS>MOLECULE
title: molecule 1
19   19    1
SMALL
USER_CHARGES


@<TRIPOS>ATOM
      1 C1          4.7579   -2.5231    0.0432 C.ar      1 UNK        -0.1150 
      2 C2          4.7574   -3.9327    0.0131 C.ar      1 UNK        -0.1150 
      3 C3          3.5295   -1.8149    0.1229 C.ar      1 UNK         0.0900 
      4 C4          6.0883   -1.7916   -0.0292 C.3       1 UNK        -0.0650 
      5 C5          3.5463   -4.6438    0.0514 C.ar      1 UNK        -0.1150 
      6 C6          2.3051   -2.5371    0.1735 C.ar      1 UNK         0.0900 
      7 N7          3.5290   -0.3438    0.1211 N.pl3     1 UNK         0.6500 
      8 C8          2.3278   -3.9482    0.1280 C.ar      1 UNK        -0.1150 
      9 N9          1.0035   -1.8560    0.2813 N.pl3     1 UNK         0.6500 
     10 O10         3.0035    0.2214   -0.8317 O.co2     1 UNK        -0.3700 
     11 O11         4.0515    0.2299    1.0703 O.co2     1 UNK        -0.3700 
     12 O12         0.0924   -2.2589   -0.4337 O.co2     1 UNK        -0.3700 
     13 O13         0.8864   -0.9488    1.0982 O.co2     1 UNK        -0.3700 
     14 H14         5.6886   -4.4771   -0.0477 H         1 UNK         0.1150 
     15 H15         6.0662   -1.0236   -0.8030 H         1 UNK         0.0600 
     16 H16         6.3126   -1.3157    0.9257 H         1 UNK         0.0600 
     17 H17         6.9055   -2.4742   -0.2640 H         1 UNK         0.0600 
     18 H18         3.5521   -5.7237    0.0234 H         1 UNK         0.1150 
     19 H19         1.4029   -4.5056    0.1641 H         1 UNK         0.1150 
@<TRIPOS>BOND
     1    1    2 ar   
     2    1    3 ar   
     3    1    4 1    
     4    2    5 ar   
     5    2   14 1    
     6    3    6 ar   
     7    3    7 1    
     8    4   15 1    
     9    4   16 1    
    10    4   17 1    
    11    5    8 ar   
    12    5   18 1    
    13    6    8 ar   
    14    6    9 1    
    15    7   10 1    
    16    7   11 2    
    17    8   19 1    
    18    9   12 1    
    19    9   13 2    
@<TRIPOS>SUBSTRUCTURE
     1 UNK         1 GROUP             0       ****    0 ROOT    
