@<TRIPOS>MOLECULE
title: molecule 1
12   12    1
SMALL
USER_CHARGES


@<TRIPOS>ATOM
      1 C1          3.6292   -0.4437    0.1119 C.ar      1 UNK         0.1800 
      2 C2          3.6525   -1.8557    0.0999 C.ar      1 UNK         0.1800 
      3 C3          2.3987    0.2391    0.1057 C.ar      1 UNK        -0.1150 
      4 Cl4         5.0959    0.4695    0.1344 Cl        1 UNK        -0.1800 
      5 C5          2.4378   -2.5791    0.0815 C.ar      1 UNK         0.1800 
      6 Cl6         5.1657   -2.6963    0.1076 Cl        1 UNK        -0.1800 
      7 C7          1.1877   -0.4773    0.0875 C.ar      1 UNK         0.1800 
      8 C8          1.2034   -1.8895    0.0753 C.ar      1 UNK         0.1800 
      9 Cl9         2.4617   -4.3101    0.0667 Cl        1 UNK        -0.1800 
     10 Cl10       -0.3038    0.3952    0.0803 Cl        1 UNK        -0.1800 
     11 Cl11       -0.2859   -2.7713    0.0529 Cl        1 UNK        -0.1800 
     12 H12         2.3838    1.3193    0.1150 H         1 UNK         0.1150 
@<TRIPOS>BOND
     1    1    2 ar   
     2    1    3 ar   
     3    1    4 1    
     4    2    5 ar   
     5    2    6 1    
     6    3    7 ar   
     7    3   12 1    
     8    5    8 ar   
     9    5    9 1    
    10    7    8 ar   
    11    7   10 1    
    12    8   11 1    
@<TRIPOS>SUBSTRUCTURE
     1 UNK         1 GROUP             0       ****    0 ROOT    
