@<TRIPOS>MOLECULE
title: molecule 1
14   14    1
SMALL
USER_CHARGES


@<TRIPOS>ATOM
      1 N1          5.6618   -2.2159    0.0849 N.pl3     1 UNK         0.6500 
      2 O2          6.2140   -3.0435    0.8019 O.co2     1 UNK        -0.3700 
      3 O3          6.2582   -1.4462   -0.6603 O.co2     1 UNK        -0.3700 
      4 C4          4.1899   -2.1837    0.0949 C.ar      1 UNK         0.0900 
      5 C5          3.4793   -3.4043    0.0441 C.ar      1 UNK        -0.1150 
      6 C6          3.4644   -0.9653    0.1606 C.ar      1 UNK         0.1800 
      7 C7          2.0718   -3.4179    0.0427 C.ar      1 UNK        -0.1150 
      8 C8          2.0548   -0.9857    0.1577 C.ar      1 UNK        -0.1150 
      9 Cl9         4.2555    0.5683    0.2805 Cl        1 UNK        -0.1800 
     10 C10         1.3583   -2.2070    0.0969 C.ar      1 UNK         0.1800 
     11 Cl11       -0.3669   -2.2191    0.0952 Cl        1 UNK        -0.1800 
     12 H12         4.0164   -4.3406   -0.0020 H         1 UNK         0.1150 
     13 H13         1.5414   -4.3579   -0.0011 H         1 UNK         0.1150 
     14 H14         1.5044   -0.0577    0.2091 H         1 UNK         0.1150 
@<TRIPOS>BOND
     1    1    2 2    
     2    1    3 1    
     3    1    4 1    
     4    4    5 ar   
     5    4    6 ar   
     6    5    7 ar   
     7    5   12 1    
     8    6    8 ar   
     9    6    9 1    
    10    7   10 ar   
    11    7   13 1    
    12    8   10 ar   
    13    8   14 1    
    14   10   11 1    
@<TRIPOS>SUBSTRUCTURE
     1 UNK         1 GROUP             0       ****    0 ROOT    
