@<TRIPOS>MOLECULE
title: molecule 1
14   14    1
SMALL
USER_CHARGES


@<TRIPOS>ATOM
      1 C1          3.0813    0.2981    0.1053 C.ar      1 UNK         0.1800 
      2 C2          3.1024    1.7059    0.0710 C.ar      1 UNK        -0.1150 
      3 C3          1.8534   -0.3880    0.1461 C.ar      1 UNK        -0.1150 
      4 Cl4         4.5626   -0.5863    0.0973 Cl        1 UNK        -0.1800 
      5 C5          1.8955    2.4445    0.0772 C.ar      1 UNK         0.0900 
      6 C6          0.6464    0.3355    0.1526 C.ar      1 UNK         0.1800 
      7 C7          0.6672    1.7433    0.1183 C.ar      1 UNK        -0.1150 
      8 N8          1.9175    3.9200    0.0412 N.pl3     1 UNK         0.6500 
      9 Cl9        -0.8605   -0.5031    0.2026 Cl        1 UNK        -0.1800 
     10 O10         0.8458    4.5171    0.0481 O.co2     1 UNK        -0.3700 
     11 O11         3.0064    4.4839    0.0061 O.co2     1 UNK        -0.3700 
     12 H12         4.0557    2.2132    0.0400 H         1 UNK         0.1150 
     13 H13         1.8373   -1.4679    0.1724 H         1 UNK         0.1150 
     14 H14        -0.2706    2.2797    0.1240 H         1 UNK         0.1150 
@<TRIPOS>BOND
     1    1    2 ar   
     2    1    3 ar   
     3    1    4 1    
     4    2    5 ar   
     5    2   12 1    
     6    3    6 ar   
     7    3   13 1    
     8    5    7 ar   
     9    5    8 1    
    10    6    7 ar   
    11    6    9 1    
    12    7   14 1    
    13    8   10 2    
    14    8   11 1    
@<TRIPOS>SUBSTRUCTURE
     1 UNK         1 GROUP             0       ****    0 ROOT    
