@<TRIPOS>MOLECULE
title: molecule 1
8   7    1
SMALL
USER_CHARGES


@<TRIPOS>ATOM
      1 N1          2.0270    0.2010    0.0925 N.pl3     1 UNK        -0.7839 
      2 C2          1.4098   -0.9949    0.0807 C.2       1 UNK         0.3872 
      3 S3          2.1961   -2.4528    0.0706 S.2       1 UNK        -0.4762 
      4 N4          0.0715   -0.8537    0.0782 N.pl3     1 UNK        -0.7839 
      5 H5          3.0367    0.2272    0.0954 H         1 UNK         0.4142 
      6 H6          1.4886    1.0541    0.0982 H         1 UNK         0.4142 
      7 H7         -0.5052   -1.6829    0.0697 H         1 UNK         0.4142 
      8 H8         -0.3457    0.0649    0.0848 H         1 UNK         0.4142 
@<TRIPOS>BOND
     1    1    2 1    
     2    1    5 1    
     3    1    6 1    
     4    2    3 2    
     5    2    4 1    
     6    4    7 1    
     7    4    8 1    
@<TRIPOS>SUBSTRUCTURE
     1 UNK         1 GROUP             0       ****    0 ROOT    
