@<TRIPOS>MOLECULE
title: molecule 1
14   14    1
SMALL
USER_CHARGES


@<TRIPOS>ATOM
      1 N1         -0.0024   -1.0104    0.0989 N.pl3     1 UNK        -0.9000 
      2 C2          1.3913   -1.0152    0.0998 C.ar      1 UNK         0.1800 
      3 C3          2.1017    0.2025    0.0894 C.ar      1 UNK        -0.1150 
      4 C4          2.0933   -2.2377    0.1111 C.ar      1 UNK        -0.1150 
      5 C5          3.5106    0.1972    0.0903 C.ar      1 UNK        -0.1150 
      6 C6          3.5022   -2.2421    0.1120 C.ar      1 UNK        -0.1150 
      7 C7          4.2109   -1.0249    0.1016 C.ar      1 UNK        -0.1150 
      8 H8         -0.5338   -1.8692    0.1061 H         1 UNK         0.3600 
      9 H9         -0.5279   -0.1481    0.0908 H         1 UNK         0.3600 
     10 H10         1.5711    1.1434    0.0808 H         1 UNK         0.1150 
     11 H11         1.5563   -3.1751    0.1190 H         1 UNK         0.1150 
     12 H12         4.0537    1.1307    0.0824 H         1 UNK         0.1150 
     13 H13         4.0389   -3.1793    0.1206 H         1 UNK         0.1150 
     14 H14         5.2911   -1.0286    0.1023 H         1 UNK         0.1150 
@<TRIPOS>BOND
     1    1    2 1    
     2    1    8 1    
     3    1    9 1    
     4    2    3 ar   
     5    2    4 ar   
     6    3    5 ar   
     7    3   10 1    
     8    4    6 ar   
     9    4   11 1    
    10    5    7 ar   
    11    5   12 1    
    12    6    7 ar   
    13    6   13 1    
    14    7   14 1    
@<TRIPOS>SUBSTRUCTURE
     1 UNK         1 GROUP             0       ****    0 ROOT    
