@<TRIPOS>MOLECULE
title: molecule 1
18   17    1
SMALL
USER_CHARGES


@<TRIPOS>ATOM
      1 O1          2.7550   -1.4738   -1.5755 O.2       1 UNK        -0.6661 
      2 P2          2.0224   -2.0122   -0.3950 P.3       1 UNK         1.2307 
      3 O3          2.1415   -3.6166   -0.1569 O.3       1 UNK        -0.2732 
      4 O4          0.4132   -1.7790   -0.4008 O.3       1 UNK        -0.4611 
      5 O5          2.4569   -1.3991    1.0473 O.3       1 UNK        -0.4611 
      6 C6          3.3256   -4.2772   -0.3003 C.2       1 UNK        -0.0300 
      7 C7         -0.3924   -2.2627    0.6561 C.3       1 UNK         0.0929 
      8 C8          3.8200   -1.2954    1.4057 C.3       1 UNK         0.0929 
      9 C9          3.4436   -5.5908   -0.0604 C.2       1 UNK         0.1200 
     10 Cl10        4.9279   -6.4520   -0.2341 Cl        1 UNK        -0.0600 
     11 Cl11        2.1319   -6.5883    0.4528 Cl        1 UNK        -0.0600 
     12 H12         4.1375   -3.6403   -0.6221 H         1 UNK         0.1150 
     13 H13        -1.4335   -1.9927    0.4804 H         1 UNK         0.0600 
     14 H14        -0.3307   -3.3490    0.7279 H         1 UNK         0.0600 
     15 H15        -0.0860   -1.8320    1.6097 H         1 UNK         0.0600 
     16 H16         3.9202   -0.6955    2.3100 H         1 UNK         0.0600 
     17 H17         4.2432   -2.2803    1.6027 H         1 UNK         0.0600 
     18 H18         4.3986   -0.8179    0.6142 H         1 UNK         0.0600 
@<TRIPOS>BOND
     1    1    2 2    
     2    2    3 1    
     3    2    4 1    
     4    2    5 1    
     5    3    6 1    
     6    4    7 1    
     7    5    8 1    
     8    6    9 2    
     9    6   12 1    
    10    7   13 1    
    11    7   14 1    
    12    7   15 1    
    13    8   16 1    
    14    8   17 1    
    15    8   18 1    
    16    9   10 1    
    17    9   11 1    
@<TRIPOS>SUBSTRUCTURE
     1 UNK         1 GROUP             0       ****    0 ROOT    
