@<TRIPOS>MOLECULE
title: molecule 1
17   17    1
SMALL
USER_CHARGES


@<TRIPOS>ATOM
      1 S1          6.3072   -3.1780   -1.4743 S.2       1 UNK        -0.0075 
      2 C2          5.7018   -1.8797   -0.7784 C.1       1 UNK         0.2438 
      3 N3          5.1590   -0.9342   -0.2336 N.2       1 UNK        -0.4565 
      4 C4          4.2752   -0.6086    0.8544 C.3       1 UNK         0.2152 
      5 C5          2.8275   -0.8367    0.4602 C.ar      1 UNK        -0.1150 
      6 C6          2.0874    0.1974   -0.1510 C.ar      1 UNK        -0.1150 
      7 C7          2.2165   -2.0863    0.6978 C.ar      1 UNK        -0.1150 
      8 C8          0.7449   -0.0163   -0.5202 C.ar      1 UNK        -0.1150 
      9 C9          0.8742   -2.2994    0.3281 C.ar      1 UNK        -0.1150 
     10 C10         0.1380   -1.2644   -0.2804 C.ar      1 UNK        -0.1150 
     11 H11         4.5185   -1.2117    1.7303 H         1 UNK         0.0600 
     12 H12         4.4155    0.4331    1.1447 H         1 UNK         0.0600 
     13 H13         2.5486    1.1557   -0.3403 H         1 UNK         0.1150 
     14 H14         2.7773   -2.8850    1.1610 H         1 UNK         0.1150 
     15 H15         0.1811    0.7771   -0.9884 H         1 UNK         0.1150 
     16 H16         0.4096   -3.2573    0.5105 H         1 UNK         0.1150 
     17 H17        -0.8911   -1.4281   -0.5642 H         1 UNK         0.1150 
@<TRIPOS>BOND
     1    1    2 2    
     2    2    3 2    
     3    3    4 1    
     4    4    5 1    
     5    4   11 1    
     6    4   12 1    
     7    5    6 ar   
     8    5    7 ar   
     9    6    8 ar   
    10    6   13 1    
    11    7    9 ar   
    12    7   14 1    
    13    8   10 ar   
    14    8   15 1    
    15    9   10 ar   
    16    9   16 1    
    17   10   17 1    
@<TRIPOS>SUBSTRUCTURE
     1 UNK         1 GROUP             0       ****    0 ROOT    
