@<TRIPOS>MOLECULE
title: molecule 1
14   13    1
SMALL
USER_CHARGES


@<TRIPOS>ATOM
      1 N1          1.8632    0.6497   -0.2218 N.pl3     1 UNK        -0.4272 
      2 C2          0.5791    0.8559    0.1648 C.2       1 UNK         0.4157 
      3 C3          2.8282    1.6967   -0.5542 C.3       1 UNK         0.0320 
      4 N4         -0.0211   -0.3264    0.3967 N.pl3     1 UNK        -0.7839 
      5 S5         -0.2157    2.3077    0.3509 S.2       1 UNK        -0.4762 
      6 C6          3.5815    2.1851    0.6901 C.3       1 UNK        -0.1800 
      7 H7          2.1906   -0.3027   -0.2864 H         1 UNK         0.2912 
      8 H8          3.5407    1.2806   -1.2667 H         1 UNK         0.0600 
      9 H9          2.3445    2.5310   -1.0631 H         1 UNK         0.0600 
     10 H10        -0.9863   -0.3325    0.6939 H         1 UNK         0.4142 
     11 H11         0.4888   -1.1884    0.2750 H         1 UNK         0.4142 
     12 H12         4.3228    2.9377    0.4215 H         1 UNK         0.0600 
     13 H13         2.9032    2.6341    1.4161 H         1 UNK         0.0600 
     14 H14         4.1042    1.3645    1.1821 H         1 UNK         0.0600 
@<TRIPOS>BOND
     1    1    2 1    
     2    1    3 1    
     3    1    7 1    
     4    2    4 1    
     5    2    5 2    
     6    3    6 1    
     7    3    8 1    
     8    3    9 1    
     9    4   10 1    
    10    4   11 1    
    11    6   12 1    
    12    6   13 1    
    13    6   14 1    
@<TRIPOS>SUBSTRUCTURE
     1 UNK         1 GROUP             0       ****    0 ROOT    
