@<TRIPOS>MOLECULE
title: molecule 1
14   14    1
SMALL
USER_CHARGES


@<TRIPOS>ATOM
      1 N1         -0.0223   -3.9441    0.1344 N.pl3     1 UNK        -0.9000 
      2 C2          1.1854   -3.2481    0.1142 C.ar      1 UNK         0.1800 
      3 C3          1.1878   -1.8386    0.0897 C.ar      1 UNK        -0.1150 
      4 C4          2.4065   -3.9524    0.1183 C.ar      1 UNK        -0.1150 
      5 C5          2.4086   -1.1353    0.0693 C.ar      1 UNK         0.1800 
      6 C6          3.6270   -3.2487    0.0980 C.ar      1 UNK         0.1800 
      7 C7          3.6282   -1.8403    0.0735 C.ar      1 UNK        -0.1150 
      8 Cl8         2.4099    0.5897    0.0393 Cl        1 UNK        -0.1800 
      9 Cl9         5.1207   -4.1122    0.1031 Cl        1 UNK        -0.1800 
     10 H10        -0.0511   -4.9536    0.1521 H         1 UNK         0.3600 
     11 H11        -0.9105   -3.4630    0.1319 H         1 UNK         0.3600 
     12 H12         0.2554   -1.2929    0.0864 H         1 UNK         0.1150 
     13 H13         2.4115   -5.0327    0.1371 H         1 UNK         0.1150 
     14 H14         4.5640   -1.3010    0.0579 H         1 UNK         0.1150 
@<TRIPOS>BOND
     1    1    2 1    
     2    1   10 1    
     3    1   11 1    
     4    2    3 ar   
     5    2    4 ar   
     6    3    5 ar   
     7    3   12 1    
     8    4    6 ar   
     9    4   13 1    
    10    5    7 ar   
    11    5    8 1    
    12    6    7 ar   
    13    6    9 1    
    14    7   14 1    
@<TRIPOS>SUBSTRUCTURE
     1 UNK         1 GROUP             0       ****    0 ROOT    
