@<TRIPOS>MOLECULE
title: molecule 1
26   27    1
SMALL
USER_CHARGES


@<TRIPOS>ATOM
      1 O1          1.4730   -1.5740   -1.1623 O.2       1 UNK        -0.4970 
      2 C2          1.3664   -2.1172   -0.0611 C.2       1 UNK         0.6995 
      3 O3          2.3310   -2.1710    0.8805 O.3       1 UNK        -0.2150 
      4 N4          0.2507   -2.7766    0.4217 N.am      1 UNK        -0.5657 
      5 C5          3.5466   -1.5728    0.6470 C.ar      1 UNK         0.1350 
      6 C6         -0.9787   -2.9122   -0.3422 C.3       1 UNK        -0.0280 
      7 C7          4.6888   -2.3480    0.3257 C.ar      1 UNK         0.0000 
      8 C8          3.6699   -0.1731    0.7891 C.ar      1 UNK        -0.1150 
      9 C9          5.9383   -1.7056    0.1216 C.ar      1 UNK         0.0000 
     10 C10         4.6072   -3.7541    0.2005 C.ar      1 UNK        -0.1150 
     11 C11         4.9102    0.4588    0.5842 C.ar      1 UNK        -0.1150 
     12 C12         6.0424   -0.3055    0.2481 C.ar      1 UNK        -0.1150 
     13 C13         7.0800   -2.4665   -0.2057 C.ar      1 UNK        -0.1150 
     14 C14         5.7509   -4.5082   -0.1255 C.ar      1 UNK        -0.1150 
     15 C15         6.9861   -3.8655   -0.3291 C.ar      1 UNK        -0.1150 
     16 H16         0.3149   -3.1738    1.3478 H         1 UNK         0.2912 
     17 H17        -1.7182   -3.4666    0.2356 H         1 UNK         0.0600 
     18 H18        -1.3957   -1.9333   -0.5817 H         1 UNK         0.0600 
     19 H19        -0.7985   -3.4508   -1.2734 H         1 UNK         0.0600 
     20 H20         2.8063    0.4202    1.0522 H         1 UNK         0.1150 
     21 H21         3.6694   -4.2684    0.3506 H         1 UNK         0.1150 
     22 H22         4.9935    1.5307    0.6876 H         1 UNK         0.1150 
     23 H23         6.9912    0.1878    0.0936 H         1 UNK         0.1150 
     24 H24         8.0326   -1.9814   -0.3623 H         1 UNK         0.1150 
     25 H25         5.6797   -5.5818   -0.2201 H         1 UNK         0.1150 
     26 H26         7.8621   -4.4456   -0.5794 H         1 UNK         0.1150 
@<TRIPOS>BOND
     1    1    2 2    
     2    2    3 1    
     3    2    4 am   BACKBONE|DICT|INTERRES
     4    3    5 1    
     5    4    6 1    
     6    4   16 1    
     7    5    7 ar   
     8    5    8 ar   
     9    6   17 1    
    10    6   18 1    
    11    6   19 1    
    12    7    9 ar   
    13    7   10 ar   
    14    8   11 ar   
    15    8   20 1    
    16    9   12 ar   
    17    9   13 ar   
    18   10   14 ar   
    19   10   21 1    
    20   11   12 ar   
    21   11   22 1    
    22   12   23 1    
    23   13   15 ar   
    24   13   24 1    
    25   14   15 ar   
    26   14   25 1    
    27   15   26 1    
@<TRIPOS>SUBSTRUCTURE
     1 UNK         1 GROUP             0       ****    0 ROOT    
