@<TRIPOS>MOLECULE
title: molecule 1
8   7    1
SMALL
USER_CHARGES


@<TRIPOS>ATOM
      1 Cl1         0.7811    0.2435   -0.9189 Cl        1 UNK         0.0120 
      2 C2          1.2262   -1.1473    0.1054 C.3       1 UNK        -0.0360 
      3 C3          2.3905   -0.7644    1.0345 C.3       1 UNK        -0.0060 
      4 Cl4         1.6949   -2.5284   -0.9215 Cl        1 UNK         0.0120 
      5 Cl5        -0.1750   -1.6101    1.1042 Cl        1 UNK         0.0120 
      6 Cl6         3.8437   -0.2845    0.1149 Cl        1 UNK        -0.2000 
      7 H7          2.1191    0.0725    1.6786 H         1 UNK         0.1030 
      8 H8          2.6703   -1.5997    1.6770 H         1 UNK         0.1030 
@<TRIPOS>BOND
     1    1    2 1    
     2    2    3 1    
     3    2    4 1    
     4    2    5 1    
     5    3    6 1    
     6    3    7 1    
     7    3    8 1    
@<TRIPOS>SUBSTRUCTURE
     1 UNK         1 GROUP             0       ****    0 ROOT    
