@<TRIPOS>MOLECULE
title: molecule 1
20   19    1
SMALL
USER_CHARGES


@<TRIPOS>ATOM
      1 N1          3.0046    1.1396    0.2065 N.am      1 UNK        -0.2219 
      2 C2          1.8615    1.8037   -0.1002 C.2       1 UNK         0.8613 
      3 C3          4.3021    1.6929   -0.1824 C.3       1 UNK        -0.1303 
      4 C4          3.0914    0.0858    1.2242 C.3       1 UNK        -0.1303 
      5 N5          0.7116    1.0834   -0.0772 N.am      1 UNK        -0.2219 
      6 O6          1.8675    3.0032   -0.3859 O.2       1 UNK        -0.6163 
      7 C7         -0.5798    1.7647    0.0177 C.3       1 UNK        -0.1303 
      8 C8          0.6127   -0.3151   -0.5109 C.3       1 UNK        -0.1303 
      9 H9          5.0773    0.9256   -0.1712 H         1 UNK         0.0600 
     10 H10         4.2734    2.1059   -1.1921 H         1 UNK         0.0600 
     11 H11         4.5993    2.4870    0.5037 H         1 UNK         0.0600 
     12 H12         2.2384    0.0939    1.9047 H         1 UNK         0.0600 
     13 H13         3.1455   -0.8948    0.7509 H         1 UNK         0.0600 
     14 H14         3.9836    0.2060    1.8402 H         1 UNK         0.0600 
     15 H15        -1.3621    1.0820    0.3518 H         1 UNK         0.0600 
     16 H16        -0.5449    2.5882    0.7329 H         1 UNK         0.0600 
     17 H17        -0.8710    2.1671   -0.9534 H         1 UNK         0.0600 
     18 H18        -0.2797   -0.4771   -1.1169 H         1 UNK         0.0600 
     19 H19         1.4642   -0.6227   -1.1200 H         1 UNK         0.0600 
     20 H20         0.5505   -0.9766    0.3535 H         1 UNK         0.0600 
@<TRIPOS>BOND
     1    1    2 am   BACKBONE|DICT|INTERRES
     2    1    3 1    
     3    1    4 1    
     4    2    5 am   BACKBONE|DICT|INTERRES
     5    2    6 2    
     6    3    9 1    
     7    3   10 1    
     8    3   11 1    
     9    4   12 1    
    10    4   13 1    
    11    4   14 1    
    12    5    7 1    
    13    5    8 1    
    14    7   15 1    
    15    7   16 1    
    16    7   17 1    
    17    8   18 1    
    18    8   19 1    
    19    8   20 1    
@<TRIPOS>SUBSTRUCTURE
     1 UNK         1 GROUP             0       ****    0 ROOT    
