@<TRIPOS>MOLECULE
title: molecule 1
14   14    1
SMALL
USER_CHARGES


@<TRIPOS>ATOM
      1 C1          2.8801    0.7380    0.0531 C.ar      1 UNK         0.1800 
      2 C2          1.4662    0.7206    0.0591 C.ar      1 UNK         0.1800 
      3 C3          3.5730    1.9697    0.0940 C.ar      1 UNK         0.1800 
      4 Cl4         3.7637   -0.7498   -0.0044 Cl        1 UNK        -0.1800 
      5 C5          0.7479    1.9371    0.1060 C.ar      1 UNK         0.1800 
      6 Cl6         0.6162   -0.7882    0.0090 Cl        1 UNK        -0.1800 
      7 C7          2.8496    3.1815    0.1408 C.ar      1 UNK         0.1800 
      8 Cl8         5.3038    1.9949    0.0868 Cl        1 UNK        -0.1800 
      9 C9          1.4424    3.1612    0.1467 C.ar      1 UNK        -0.1150 
     10 N10        -0.6476    1.9458    0.1129 N.pl3     1 UNK        -0.9000 
     11 Cl11        3.6672    4.7031    0.1915 Cl        1 UNK        -0.1800 
     12 H12         0.8965    4.0930    0.1826 H         1 UNK         0.1150 
     13 H13        -1.1771    1.0855    0.0845 H         1 UNK         0.3600 
     14 H14        -1.1751    2.8065    0.1462 H         1 UNK         0.3600 
@<TRIPOS>BOND
     1    1    2 ar   
     2    1    3 ar   
     3    1    4 1    
     4    2    5 ar   
     5    2    6 1    
     6    3    7 ar   
     7    3    8 1    
     8    5    9 ar   
     9    5   10 1    
    10    7    9 ar   
    11    7   11 1    
    12    9   12 1    
    13   10   13 1    
    14   10   14 1    
@<TRIPOS>SUBSTRUCTURE
     1 UNK         1 GROUP             0       ****    0 ROOT    
