@<TRIPOS>MOLECULE
title: molecule 1
12   12    1
SMALL
USER_CHARGES


@<TRIPOS>ATOM
      1 Cl1         5.8823   -2.1443    0.1010 Cl        1 UNK        -0.1800 
      2 C2          4.1517   -2.1574    0.0966 C.ar      1 UNK         0.1800 
      3 C3          3.4504   -3.3848    0.0912 C.ar      1 UNK         0.1800 
      4 C4          3.4319   -0.9408    0.0985 C.ar      1 UNK         0.1800 
      5 Cl5         4.2973   -4.8910    0.0887 Cl        1 UNK        -0.1800 
      6 C6          2.0416   -3.3918    0.0877 C.ar      1 UNK        -0.1150 
      7 C7          2.0232   -0.9550    0.0950 C.ar      1 UNK        -0.1150 
      8 Cl8         4.2559    0.5781    0.1052 Cl        1 UNK        -0.1800 
      9 C9          1.3278   -2.1788    0.0896 C.ar      1 UNK         0.1800 
     10 Cl10       -0.3973   -2.1918    0.0853 Cl        1 UNK        -0.1800 
     11 H11         1.5074   -4.3308    0.0835 H         1 UNK         0.1150 
     12 H12         1.4748   -0.0243    0.0965 H         1 UNK         0.1150 
@<TRIPOS>BOND
     1    1    2 1    
     2    2    3 ar   
     3    2    4 ar   
     4    3    5 1    
     5    3    6 ar   
     6    4    7 ar   
     7    4    8 1    
     8    6    9 ar   
     9    6   11 1    
    10    7    9 ar   
    11    7   12 1    
    12    9   10 1    
@<TRIPOS>SUBSTRUCTURE
     1 UNK         1 GROUP             0       ****    0 ROOT    
