@<TRIPOS>MOLECULE
title: molecule 1
14   14    1
SMALL
USER_CHARGES


@<TRIPOS>ATOM
      1 N1         -0.0477   -2.2528    0.1254 N.pl3     1 UNK        -0.9000 
      2 C2          1.3475   -2.2320    0.1112 C.ar      1 UNK         0.1800 
      3 C3          2.0556   -1.0078    0.0802 C.ar      1 UNK         0.1800 
      4 C4          2.0521   -3.4516    0.1282 C.ar      1 UNK        -0.1150 
      5 Cl5         1.1925    0.4943    0.0593 Cl        1 UNK        -0.1800 
      6 C6          3.4699   -1.0125    0.0663 C.ar      1 UNK         0.1800 
      7 C7          3.4588   -3.4551    0.1144 C.ar      1 UNK        -0.1150 
      8 Cl8         4.3442    0.4811    0.0284 Cl        1 UNK        -0.1800 
      9 C9          4.1694   -2.2402    0.0835 C.ar      1 UNK         0.1800 
     10 Cl10        5.8970   -2.2787    0.0672 Cl        1 UNK        -0.1800 
     11 H11        -0.5669   -3.1188    0.1475 H         1 UNK         0.3600 
     12 H12        -0.5845   -1.3968    0.1139 H         1 UNK         0.3600 
     13 H13         1.5173   -4.3901    0.1519 H         1 UNK         0.1150 
     14 H14         3.9935   -4.3936    0.1275 H         1 UNK         0.1150 
@<TRIPOS>BOND
     1    1    2 1    
     2    1   11 1    
     3    1   12 1    
     4    2    3 ar   
     5    2    4 ar   
     6    3    5 1    
     7    3    6 ar   
     8    4    7 ar   
     9    4   13 1    
    10    6    8 1    
    11    6    9 ar   
    12    7    9 ar   
    13    7   14 1    
    14    9   10 1    
@<TRIPOS>SUBSTRUCTURE
     1 UNK         1 GROUP             0       ****    0 ROOT    
