@<TRIPOS>MOLECULE
title: molecule 1
52   54    1
SMALL
USER_CHARGES


@<TRIPOS>ATOM
      1 C1          3.1616   -4.2222   -0.6512 C.ar      1 UNK        -0.1150 
      2 C2          4.3935   -4.1970   -1.5564 C.3       1 UNK         0.0550 
      3 C3          2.2265   -3.1677   -0.7309 C.ar      1 UNK        -0.1150 
      4 C4          2.9346   -5.2768    0.2641 C.ar      1 UNK        -0.1150 
      5 C5          5.6943   -4.4778   -0.7765 C.2       1 UNK         0.5100 
      6 C6          4.1819   -5.0003   -2.8746 C.3       1 UNK        -0.0600 
      7 C7          1.0836   -3.1634    0.0920 C.ar      1 UNK        -0.1150 
      8 C8          1.7919   -5.2725    1.0869 C.ar      1 UNK        -0.1150 
      9 O9          5.8918   -3.5823    0.2107 O.3       1 UNK        -0.3300 
     10 O10         6.4509   -5.4107   -1.0485 O.2       1 UNK        -0.4300 
     11 C11         5.2479   -4.6794   -3.9382 C.3       1 UNK        -0.1800 
     12 C12         4.0058   -6.5230   -2.7048 C.3       1 UNK        -0.1800 
     13 C13         0.8658   -4.2156    1.0018 C.ar      1 UNK         0.1800 
     14 C14         7.0328   -3.6763    1.0537 C.3       1 UNK         0.2618 
     15 Cl15       -0.5344   -4.2103    2.0099 Cl        1 UNK        -0.1800 
     16 C16         8.2376   -2.9539    0.4752 C.ar      1 UNK        -0.0418 
     17 C17         6.6760   -3.1417    2.3770 C.1       1 UNK         0.5600 
     18 C18         9.4815   -3.6136    0.3944 C.ar      1 UNK        -0.1150 
     19 C19         8.1255   -1.6185    0.0326 C.ar      1 UNK        -0.1150 
     20 N20         6.3951   -2.7213    3.4179 N.1       1 UNK        -0.5600 
     21 C21        10.6079   -2.9472   -0.1282 C.ar      1 UNK         0.0850 
     22 C22         9.2473   -0.9523   -0.4968 C.ar      1 UNK        -0.1150 
     23 O23        11.8059   -3.6088   -0.2056 O.3       1 UNK        -0.1700 
     24 C24        10.4864   -1.6158   -0.5801 C.ar      1 UNK        -0.1150 
     25 C25        12.8452   -3.1101    0.5363 C.ar      1 UNK         0.0850 
     26 C26        14.0054   -2.6495   -0.1183 C.ar      1 UNK        -0.1150 
     27 C27        12.7748   -3.0692    1.9459 C.ar      1 UNK        -0.1150 
     28 C28        15.0853   -2.1401    0.6292 C.ar      1 UNK        -0.1150 
     29 C29        13.8547   -2.5598    2.6932 C.ar      1 UNK        -0.1150 
     30 C30        15.0096   -2.0942    2.0349 C.ar      1 UNK        -0.1150 
     31 H31         4.4966   -3.1553   -1.8624 H         1 UNK         0.0600 
     32 H32         2.3824   -2.3555   -1.4259 H         1 UNK         0.1150 
     33 H33         3.6345   -6.0963    0.3389 H         1 UNK         0.1150 
     34 H34         3.2433   -4.6357   -3.2947 H         1 UNK         0.0600 
     35 H35         0.3742   -2.3517    0.0239 H         1 UNK         0.1150 
     36 H36         1.6267   -6.0818    1.7829 H         1 UNK         0.1150 
     37 H37         4.9874   -5.1265   -4.8979 H         1 UNK         0.0600 
     38 H38         5.3375   -3.6040   -4.0940 H         1 UNK         0.0600 
     39 H39         6.2310   -5.0586   -3.6600 H         1 UNK         0.0600 
     40 H40         3.7974   -6.9945   -3.6654 H         1 UNK         0.0600 
     41 H41         4.8956   -7.0024   -2.2992 H         1 UNK         0.0600 
     42 H42         3.1686   -6.7613   -2.0500 H         1 UNK         0.0600 
     43 H43         7.2890   -4.7240    1.2192 H         1 UNK         0.0300 
     44 H44         9.5772   -4.6347    0.7339 H         1 UNK         0.1150 
     45 H45         7.1780   -1.1032    0.0953 H         1 UNK         0.1150 
     46 H46         9.1576    0.0682   -0.8391 H         1 UNK         0.1150 
     47 H47        11.3442   -1.1020   -0.9885 H         1 UNK         0.1150 
     48 H48        14.0658   -2.6846   -1.1962 H         1 UNK         0.1150 
     49 H49        11.8922   -3.4277    2.4550 H         1 UNK         0.1150 
     50 H50        15.9717   -1.7853    0.1242 H         1 UNK         0.1150 
     51 H51        13.7974   -2.5272    3.7713 H         1 UNK         0.1150 
     52 H52        15.8377   -1.7038    2.6080 H         1 UNK         0.1150 
@<TRIPOS>BOND
     1    1    2 1    
     2    1    3 ar   
     3    1    4 ar   
     4    2    5 1    
     5    2    6 1    
     6    2   31 1    
     7    3    7 ar   
     8    3   32 1    
     9    4    8 ar   
    10    4   33 1    
    11    5    9 1    
    12    5   10 2    
    13    6   11 1    
    14    6   12 1    
    15    6   34 1    
    16    7   13 ar   
    17    7   35 1    
    18    8   13 ar   
    19    8   36 1    
    20    9   14 1    
    21   11   37 1    
    22   11   38 1    
    23   11   39 1    
    24   12   40 1    
    25   12   41 1    
    26   12   42 1    
    27   13   15 1    
    28   14   16 1    
    29   14   17 1    
    30   14   43 1    
    31   16   18 ar   
    32   16   19 ar   
    33   17   20 3    
    34   18   21 ar   
    35   18   44 1    
    36   19   22 ar   
    37   19   45 1    
    38   21   23 1    
    39   21   24 ar   
    40   22   24 ar   
    41   22   46 1    
    42   23   25 1    
    43   24   47 1    
    44   25   26 ar   
    45   25   27 ar   
    46   26   28 ar   
    47   26   48 1    
    48   27   29 ar   
    49   27   49 1    
    50   28   30 ar   
    51   28   50 1    
    52   29   30 ar   
    53   29   51 1    
    54   30   52 1    
@<TRIPOS>SUBSTRUCTURE
     1 UNK         1 GROUP             0       ****    0 ROOT    
