@<TRIPOS>MOLECULE
title: molecule 1
49   51    1
SMALL
USER_CHARGES


@<TRIPOS>ATOM
      1 C1          2.0131   -4.6803   -0.1960 C.3       1 UNK        -0.0600 
      2 C2          2.4268   -4.1403    1.1690 C.3       1 UNK         0.0000 
      3 C3          2.5222   -3.2508   -0.0660 C.3       1 UNK        -0.0600 
      4 C4          2.8308   -5.8086   -0.7739 C.2       1 UNK         0.5100 
      5 C5          3.6553   -4.6992    1.8886 C.3       1 UNK        -0.1800 
      6 C6          1.3343   -3.8678    2.1867 C.3       1 UNK        -0.1800 
      7 C7          3.8239   -2.7235   -0.6751 C.3       1 UNK         0.0575 
      8 O8          3.7260   -5.6458   -1.6029 O.2       1 UNK        -0.4300 
      9 O9          2.4685   -6.9901   -0.2407 O.3       1 UNK        -0.3300 
     10 C10         4.2637   -1.3367   -0.1403 C.3       1 UNK        -0.0117 
     11 Br11        3.5480   -2.5757   -2.6470 Br        1 UNK        -0.2039 
     12 C12         3.2290   -8.1622   -0.4977 C.3       1 UNK         0.2618 
     13 Br13        2.8542    0.0244   -0.5148 Br        1 UNK         0.0039 
     14 Br14        4.6096   -1.4307    1.8177 Br        1 UNK         0.0039 
     15 Br15        5.9511   -0.8164   -1.0623 Br        1 UNK         0.0039 
     16 C16         2.3177   -9.3180   -0.5331 C.1       1 UNK         0.5600 
     17 C17         4.3344   -8.3211    0.5330 C.ar      1 UNK        -0.0418 
     18 N18         1.6012  -10.2263   -0.5609 N.1       1 UNK        -0.5600 
     19 C19         5.6353   -7.8733    0.2270 C.ar      1 UNK        -0.1150 
     20 C20         4.0646   -8.8570    1.8109 C.ar      1 UNK        -0.1150 
     21 C21         6.6607   -7.9402    1.1950 C.ar      1 UNK         0.0850 
     22 C22         5.0916   -8.9487    2.7700 C.ar      1 UNK        -0.1150 
     23 C23         6.3870   -8.4905    2.4625 C.ar      1 UNK        -0.1150 
     24 O24         7.9228   -7.4772    0.9222 O.3       1 UNK        -0.1700 
     25 C25         8.0385   -6.1969    0.4420 C.ar      1 UNK         0.0850 
     26 C26         8.6863   -5.9803   -0.7907 C.ar      1 UNK        -0.1150 
     27 C27         7.5280   -5.0964    1.1662 C.ar      1 UNK        -0.1150 
     28 C28         8.8161   -4.6750   -1.3031 C.ar      1 UNK        -0.1150 
     29 C29         7.6563   -3.7913    0.6527 C.ar      1 UNK        -0.1150 
     30 C30         8.3016   -3.5809   -0.5813 C.ar      1 UNK        -0.1150 
     31 H31         0.9429   -4.7767   -0.3678 H         1 UNK         0.0600 
     32 H32         1.7220   -2.5213   -0.1656 H         1 UNK         0.0600 
     33 H33         3.9393   -4.0596    2.7234 H         1 UNK         0.0600 
     34 H34         3.4342   -5.6890    2.2893 H         1 UNK         0.0600 
     35 H35         4.5149   -4.7923    1.2271 H         1 UNK         0.0600 
     36 H36         1.6618   -3.1124    2.9017 H         1 UNK         0.0600 
     37 H37         0.4305   -3.5040    1.6970 H         1 UNK         0.0600 
     38 H38         1.0844   -4.7796    2.7301 H         1 UNK         0.0600 
     39 H39         4.6303   -3.4393   -0.5241 H         1 UNK         0.1464 
     40 H40         3.6772   -8.1181   -1.4915 H         1 UNK         0.0300 
     41 H41         5.8413   -7.4501   -0.7456 H         1 UNK         0.1150 
     42 H42         3.0693   -9.1909    2.0657 H         1 UNK         0.1150 
     43 H43         4.8828   -9.3604    3.7465 H         1 UNK         0.1150 
     44 H44         7.1698   -8.5508    3.2043 H         1 UNK         0.1150 
     45 H45         9.0814   -6.8182   -1.3461 H         1 UNK         0.1150 
     46 H46         7.0342   -5.2525    2.1141 H         1 UNK         0.1150 
     47 H47         9.3114   -4.5129   -2.2491 H         1 UNK         0.1150 
     48 H48         7.2624   -2.9518    1.2061 H         1 UNK         0.1150 
     49 H49         8.4049   -2.5804   -0.9742 H         1 UNK         0.1150 
@<TRIPOS>BOND
     1    1    2 1    
     2    1    3 1    
     3    1    4 1    
     4    1   31 1    
     5    2    3 1    
     6    2    5 1    
     7    2    6 1    
     8    3    7 1    
     9    3   32 1    
    10    4    8 2    
    11    4    9 1    
    12    5   33 1    
    13    5   34 1    
    14    5   35 1    
    15    6   36 1    
    16    6   37 1    
    17    6   38 1    
    18    7   10 1    
    19    7   11 1    
    20    7   39 1    
    21    9   12 1    
    22   10   13 1    
    23   10   14 1    
    24   10   15 1    
    25   12   16 1    
    26   12   17 1    
    27   12   40 1    
    28   16   18 3    
    29   17   19 ar   
    30   17   20 ar   
    31   19   21 ar   
    32   19   41 1    
    33   20   22 ar   
    34   20   42 1    
    35   21   23 ar   
    36   21   24 1    
    37   22   23 ar   
    38   22   43 1    
    39   23   44 1    
    40   24   25 1    
    41   25   26 ar   
    42   25   27 ar   
    43   26   28 ar   
    44   26   45 1    
    45   27   29 ar   
    46   27   46 1    
    47   28   30 ar   
    48   28   47 1    
    49   29   30 ar   
    50   29   48 1    
    51   30   49 1    
@<TRIPOS>SUBSTRUCTURE
     1 UNK         1 GROUP             0       ****    0 ROOT    
