@<TRIPOS>MOLECULE
title: molecule 1
6   5    1
SMALL
USER_CHARGES


@<TRIPOS>ATOM
      1 C1          0.1087    0.1432    0.0935 C.3       1 UNK         0.1450 
      2 O2          1.5182    0.1128    0.1336 O.3       1 UNK        -0.6830 
      3 H3         -0.2983    0.1395    1.1048 H         1 UNK         0.0400 
      4 H4         -0.2369    1.0423   -0.4168 H         1 UNK         0.0400 
      5 H5         -0.2743   -0.7279   -0.4382 H         1 UNK         0.0400 
      6 H6          1.8452    0.1166   -0.7531 H         1 UNK         0.4180 
@<TRIPOS>BOND
     1    1    2 1    
     2    1    3 1    
     3    1    4 1    
     4    1    5 1    
     5    2    6 1    
@<TRIPOS>SUBSTRUCTURE
     1 UNK         1 GROUP             0       ****    0 ROOT    
