@<TRIPOS>MOLECULE
title: molecule 1
10   9    1
SMALL
USER_CHARGES


@<TRIPOS>ATOM
      1 C1          2.1168   -2.3055    0.0891 C.3       1 UNK        -0.1800 
      2 C2          1.3385   -0.9963    0.0936 C.2       1 UNK         0.4700 
      3 C3          2.1465    0.2948    0.0803 C.3       1 UNK        -0.1800 
      4 O4          0.1095   -0.9822    0.1073 O.2       1 UNK        -0.4700 
      5 H5          1.4352   -3.1563    0.1014 H         1 UNK         0.0600 
      6 H6          2.7382   -2.3731   -0.8039 H         1 UNK         0.0600 
      7 H7          2.7609   -2.3657    0.9663 H         1 UNK         0.0600 
      8 H8          1.4844    1.1609    0.0829 H         1 UNK         0.0600 
      9 H9          2.7890    0.3480    0.9592 H         1 UNK         0.0600 
     10 H10         2.7721    0.3404   -0.8111 H         1 UNK         0.0600 
@<TRIPOS>BOND
     1    1    2 1    
     2    1    5 1    
     3    1    6 1    
     4    1    7 1    
     5    2    3 1    
     6    2    4 2    
     7    3    8 1    
     8    3    9 1    
     9    3   10 1    
@<TRIPOS>SUBSTRUCTURE
     1 UNK         1 GROUP             0       ****    0 ROOT    
