@<TRIPOS>MOLECULE
title: molecule 1
5   4    1
SMALL
USER_CHARGES


@<TRIPOS>ATOM
      1 Cl1        -0.2886   -0.9580    0.0485 Cl        1 UNK         0.0120 
      2 C2          1.4238   -1.0033    0.5358 C.3       1 UNK        -0.3336 
      3 Cl3         2.2312   -2.4461   -0.1265 Cl        1 UNK         0.0120 
      4 Cl4         2.2653    0.4814    0.0263 Cl        1 UNK         0.0120 
      5 H5          1.4656   -1.0606    1.6235 H         1 UNK         0.2976 
@<TRIPOS>BOND
     1    1    2 1    
     2    2    3 1    
     3    2    4 1    
     4    2    5 1    
@<TRIPOS>SUBSTRUCTURE
     1 UNK         1 GROUP             0       ****    0 ROOT    
