@<TRIPOS>MOLECULE
title: molecule 1
8   7    1
SMALL
USER_CHARGES


@<TRIPOS>ATOM
      1 Cl1         1.5307   -3.8483    0.9468 Cl        1 UNK         0.0120 
      2 C2          2.0509   -2.2864    0.2544 C.3       1 UNK        -0.0360 
      3 C3          0.8153   -1.4131   -0.0868 C.3       1 UNK        -0.0360 
      4 Cl4         3.0086   -2.6037   -1.2194 Cl        1 UNK         0.0120 
      5 Cl5         3.0888   -1.4500    1.4430 Cl        1 UNK         0.0120 
      6 Cl6        -0.1424   -1.0959    1.3869 Cl        1 UNK         0.0120 
      7 Cl7         1.3355    0.1488   -0.7793 Cl        1 UNK         0.0120 
      8 Cl8        -0.2226   -2.2495   -1.2755 Cl        1 UNK         0.0120 
@<TRIPOS>BOND
     1    1    2 1    
     2    2    3 1    
     3    2    4 1    
     4    2    5 1    
     5    3    6 1    
     6    3    7 1    
     7    3    8 1    
@<TRIPOS>SUBSTRUCTURE
     1 UNK         1 GROUP             0       ****    0 ROOT    
