@<TRIPOS>MOLECULE
title: molecule 1
29   28    1
SMALL
USER_CHARGES


@<TRIPOS>ATOM
      1 P1          1.6212   -1.8523    0.4574 P.3       1 UNK         1.3036 
      2 N2          1.1495   -0.3484   -0.2315 N.pl3     1 UNK        -0.3321 
      3 N3          1.1826   -3.0603   -0.6894 N.pl3     1 UNK        -0.3321 
      4 N4          3.3352   -1.7857    0.3776 N.pl3     1 UNK        -0.3321 
      5 O5          1.0773   -2.0884    1.8245 O.2       1 UNK        -0.6661 
      6 C6          1.6933    0.8526    0.4018 C.3       1 UNK        -0.1202 
      7 C7         -0.2527   -0.1471   -0.5914 C.3       1 UNK        -0.1202 
      8 C8          1.8958   -4.3369   -0.6363 C.3       1 UNK        -0.1202 
      9 C9         -0.2435   -3.2716   -0.9479 C.3       1 UNK        -0.1202 
     10 C10         4.1261   -2.6484    1.2506 C.3       1 UNK        -0.1202 
     11 C11         3.9973   -1.4938   -0.8933 C.3       1 UNK        -0.1202 
     12 H12         1.5126    1.7395   -0.2063 H         1 UNK         0.0600 
     13 H13         1.2404    1.0166    1.3801 H         1 UNK         0.0600 
     14 H14         2.7708    0.7803    0.5457 H         1 UNK         0.0600 
     15 H15        -0.5007    0.9093   -0.7004 H         1 UNK         0.0600 
     16 H16        -0.4816   -0.6204   -1.5450 H         1 UNK         0.0600 
     17 H17        -0.9178   -0.5606    0.1672 H         1 UNK         0.0600 
     18 H18         1.4915   -5.0590   -1.3464 H         1 UNK         0.0600 
     19 H19         2.9470   -4.2148   -0.8911 H         1 UNK         0.0600 
     20 H20         1.8387   -4.7765    0.3600 H         1 UNK         0.0600 
     21 H21        -0.5056   -4.3281   -1.0143 H         1 UNK         0.0600 
     22 H22        -0.8593   -2.8485   -0.1543 H         1 UNK         0.0600 
     23 H23        -0.5382   -2.8090   -1.8893 H         1 UNK         0.0600 
     24 H24         5.1198   -2.2319    1.4172 H         1 UNK         0.0600 
     25 H25         3.6536   -2.7589    2.2269 H         1 UNK         0.0600 
     26 H26         4.2499   -3.6438    0.8258 H         1 UNK         0.0600 
     27 H27         5.0794   -1.4295   -0.7750 H         1 UNK         0.0600 
     28 H28         3.7901   -2.2634   -1.6362 H         1 UNK         0.0600 
     29 H29         3.6611   -0.5419   -1.3035 H         1 UNK         0.0600 
@<TRIPOS>BOND
     1    1    2 1    
     2    1    3 1    
     3    1    4 1    
     4    1    5 2    
     5    2    6 1    
     6    2    7 1    
     7    3    8 1    
     8    3    9 1    
     9    4   10 1    
    10    4   11 1    
    11    6   12 1    
    12    6   13 1    
    13    6   14 1    
    14    7   15 1    
    15    7   16 1    
    16    7   17 1    
    17    8   18 1    
    18    8   19 1    
    19    8   20 1    
    20    9   21 1    
    21    9   22 1    
    22    9   23 1    
    23   10   24 1    
    24   10   25 1    
    25   10   26 1    
    26   11   27 1    
    27   11   28 1    
    28   11   29 1    
@<TRIPOS>SUBSTRUCTURE
     1 UNK         1 GROUP             0       ****    0 ROOT    
