@<TRIPOS>MOLECULE
title: molecule 1
50   52    1
SMALL
USER_CHARGES


@<TRIPOS>ATOM
      1 C1          5.4627   -0.0107   -0.1814 C.3       1 UNK         0.0000 
      2 C2          4.5134   -1.1075   -0.6247 C.3       1 UNK        -0.0600 
      3 C3          5.8855   -0.9959   -1.2706 C.3       1 UNK        -0.0600 
      4 C4          6.0558   -0.0224    1.2258 C.3       1 UNK        -0.1800 
      5 C5          5.1778    1.4221   -0.5941 C.3       1 UNK        -0.1800 
      6 C6          4.1101   -2.2320    0.2743 C.2       1 UNK        -0.1150 
      7 C7          6.9372   -2.0398   -0.9916 C.2       1 UNK         0.5100 
      8 C8          2.8825   -2.7665    0.4042 C.2       1 UNK         0.1200 
      9 O9          8.0832   -1.5014   -0.5371 O.3       1 UNK        -0.3300 
     10 O10         6.7468   -3.2375   -1.2049 O.2       1 UNK        -0.4300 
     11 C11         2.5545   -3.9165    1.3454 C.3       1 UNK         0.6000 
     12 Cl12        1.5101   -2.2035   -0.4908 Cl        1 UNK        -0.1200 
     13 C13         9.1829   -2.3321   -0.1866 C.3       1 UNK         0.2618 
     14 F14         3.2754   -4.9902    1.0238 F         1 UNK        -0.2000 
     15 F15         2.8538   -3.5804    2.5999 F         1 UNK        -0.2000 
     16 F16         1.2645   -4.2523    1.3008 F         1 UNK        -0.2000 
     17 C17         8.9148   -2.9683    1.1153 C.1       1 UNK         0.5600 
     18 C18        10.4816   -1.5482   -0.1477 C.ar      1 UNK        -0.0418 
     19 N19         8.7028   -3.4669    2.1377 N.1       1 UNK        -0.5600 
     20 C20        11.6459   -2.0861   -0.7347 C.ar      1 UNK        -0.1150 
     21 C21        10.5417   -0.2945    0.4983 C.ar      1 UNK        -0.1150 
     22 C22        12.8620   -1.3757   -0.6851 C.ar      1 UNK         0.0850 
     23 C23        11.7535    0.4213    0.5429 C.ar      1 UNK        -0.1150 
     24 O24        13.9798   -1.9125   -1.2693 O.3       1 UNK        -0.1700 
     25 C25        12.9116   -0.1161   -0.0506 C.ar      1 UNK        -0.1150 
     26 C26        15.0361   -2.2065   -0.4463 C.ar      1 UNK         0.0850 
     27 C27        14.9104   -3.1707    0.5774 C.ar      1 UNK        -0.1150 
     28 C28        16.2681   -1.5493   -0.6389 C.ar      1 UNK        -0.1150 
     29 C29        16.0081   -3.4656    1.4095 C.ar      1 UNK        -0.1150 
     30 C30        17.3657   -1.8443    0.1933 C.ar      1 UNK        -0.1150 
     31 C31        17.2355   -2.8017    1.2182 C.ar      1 UNK        -0.1150 
     32 H32         3.6885   -0.7819   -1.2543 H         1 UNK         0.0600 
     33 H33         5.8719   -0.6375   -2.2979 H         1 UNK         0.0600 
     34 H34         6.9747    0.5642    1.2524 H         1 UNK         0.0600 
     35 H35         5.3504    0.4114    1.9349 H         1 UNK         0.0600 
     36 H36         6.2942   -1.0296    1.5651 H         1 UNK         0.0600 
     37 H37         6.0979    2.0072   -0.5960 H         1 UNK         0.0600 
     38 H38         4.7490    1.4583   -1.5961 H         1 UNK         0.0600 
     39 H39         4.4710    1.8835    0.0961 H         1 UNK         0.0600 
     40 H40         4.8929   -2.6599    0.8826 H         1 UNK         0.1150 
     41 H41         9.2893   -3.1292   -0.9241 H         1 UNK         0.0300 
     42 H42        11.6122   -3.0487   -1.2239 H         1 UNK         0.1150 
     43 H43         9.6584    0.1228    0.9598 H         1 UNK         0.1150 
     44 H44        11.7949    1.3827    1.0334 H         1 UNK         0.1150 
     45 H45        13.8389    0.4367   -0.0154 H         1 UNK         0.1150 
     46 H46        13.9717   -3.6842    0.7260 H         1 UNK         0.1150 
     47 H47        16.3703   -0.8155   -1.4248 H         1 UNK         0.1150 
     48 H48        15.9086   -4.2017    2.1935 H         1 UNK         0.1150 
     49 H49        18.3075   -1.3368    0.0449 H         1 UNK         0.1150 
     50 H50        18.0772   -3.0281    1.8561 H         1 UNK         0.1150 
@<TRIPOS>BOND
     1    1    2 1    
     2    1    3 1    
     3    1    4 1    
     4    1    5 1    
     5    2    6 1    
     6    2    3 1    
     7    2   32 1    
     8    3    7 1    
     9    3   33 1    
    10    4   34 1    
    11    4   35 1    
    12    4   36 1    
    13    5   37 1    
    14    5   38 1    
    15    5   39 1    
    16    6    8 2    
    17    6   40 1    
    18    7    9 1    
    19    7   10 2    
    20    8   11 1    
    21    8   12 1    
    22    9   13 1    
    23   11   14 1    
    24   11   15 1    
    25   11   16 1    
    26   13   17 1    
    27   13   18 1    
    28   13   41 1    
    29   17   19 3    
    30   18   20 ar   
    31   18   21 ar   
    32   20   22 ar   
    33   20   42 1    
    34   21   23 ar   
    35   21   43 1    
    36   22   24 1    
    37   22   25 ar   
    38   23   25 ar   
    39   23   44 1    
    40   24   26 1    
    41   25   45 1    
    42   26   27 ar   
    43   26   28 ar   
    44   27   29 ar   
    45   27   46 1    
    46   28   30 ar   
    47   28   47 1    
    48   29   31 ar   
    49   29   48 1    
    50   30   31 ar   
    51   30   49 1    
    52   31   50 1    
@<TRIPOS>SUBSTRUCTURE
     1 UNK         1 GROUP             0       ****    0 ROOT    
