@<TRIPOS>MOLECULE
title: molecule 1
47   49    1
SMALL
USER_CHARGES


@<TRIPOS>ATOM
      1 C1          4.4298   -0.8052   -0.6208 C.3       1 UNK         0.0000 
      2 C2          4.5829   -0.7873    0.8910 C.3       1 UNK        -0.0600 
      3 C3          5.8069   -0.6103    0.0028 C.3       1 UNK        -0.0600 
      4 C4          3.7894    0.3856   -1.3106 C.3       1 UNK        -0.1800 
      5 C5          4.0281   -2.0869   -1.3470 C.3       1 UNK        -0.1800 
      6 C6          4.3458   -1.9940    1.7339 C.2       1 UNK        -0.1150 
      7 C7          6.8460   -1.7011   -0.0825 C.2       1 UNK         0.5100 
      8 C8          4.8125   -2.1760    2.9796 C.2       1 UNK         0.1200 
      9 O9          7.0973   -2.0679   -1.3531 O.3       1 UNK        -0.3300 
     10 O10         7.4232   -2.1397    0.9130 O.2       1 UNK        -0.4300 
     11 Cl11        5.7858   -1.0246    3.8217 Cl        1 UNK        -0.0600 
     12 Cl12        4.4982   -3.5986    3.9031 Cl        1 UNK        -0.0600 
     13 C13         8.0454   -3.0886   -1.6341 C.3       1 UNK         0.2618 
     14 C14         9.4597   -2.5425   -1.7308 C.ar      1 UNK        -0.0418 
     15 C15         7.6416   -3.7672   -2.8756 C.1       1 UNK         0.5600 
     16 C16        10.4542   -3.0072   -0.8460 C.ar      1 UNK        -0.1150 
     17 C17         9.7862   -1.5694   -2.6990 C.ar      1 UNK        -0.1150 
     18 N18         7.3233   -4.3005   -3.8519 N.1       1 UNK        -0.5600 
     19 C19        11.7653   -2.4944   -0.9153 C.ar      1 UNK         0.0850 
     20 C20        11.0986   -1.0650   -2.7795 C.ar      1 UNK        -0.1150 
     21 O21        12.7167   -2.9510   -0.0414 O.3       1 UNK        -0.1700 
     22 C22        12.0884   -1.5263   -1.8904 C.ar      1 UNK         0.2200 
     23 C23        13.0366   -2.1286    1.0076 C.ar      1 UNK         0.0850 
     24 F24        13.3486   -1.0372   -1.9756 F         1 UNK        -0.2200 
     25 C25        12.0882   -1.8296    2.0101 C.ar      1 UNK        -0.1150 
     26 C26        14.3367   -1.5907    1.0948 C.ar      1 UNK        -0.1150 
     27 C27        12.4365   -0.9885    3.0850 C.ar      1 UNK        -0.1150 
     28 C28        14.6849   -0.7496    2.1698 C.ar      1 UNK        -0.1150 
     29 C29        13.7345   -0.4475    3.1644 C.ar      1 UNK        -0.1150 
     30 H30         4.2322    0.1111    1.3957 H         1 UNK         0.0600 
     31 H31         6.2165    0.3978   -0.0015 H         1 UNK         0.0600 
     32 H32         4.1233    0.4496   -2.3467 H         1 UNK         0.0600 
     33 H33         2.7029    0.2936   -1.2983 H         1 UNK         0.0600 
     34 H34         4.0587    1.3150   -0.8077 H         1 UNK         0.0600 
     35 H35         2.9447   -2.2082   -1.3261 H         1 UNK         0.0600 
     36 H36         4.3500   -2.0477   -2.3882 H         1 UNK         0.0600 
     37 H37         4.4737   -2.9714   -0.8925 H         1 UNK         0.0600 
     38 H38         3.7417   -2.7757    1.2984 H         1 UNK         0.1150 
     39 H39         8.0090   -3.8537   -0.8569 H         1 UNK         0.0300 
     40 H40        10.2119   -3.7502   -0.1000 H         1 UNK         0.1150 
     41 H41         9.0307   -1.2069   -3.3811 H         1 UNK         0.1150 
     42 H42        11.3466   -0.3219   -3.5230 H         1 UNK         0.1150 
     43 H43        11.0920   -2.2438    1.9564 H         1 UNK         0.1150 
     44 H44        15.0667   -1.8208    0.3328 H         1 UNK         0.1150 
     45 H45        11.7081   -0.7594    3.8488 H         1 UNK         0.1150 
     46 H46        15.6809   -0.3365    2.2312 H         1 UNK         0.1150 
     47 H47        14.0015    0.1973    3.9888 H         1 UNK         0.1150 
@<TRIPOS>BOND
     1    1    2 1    
     2    1    3 1    
     3    1    4 1    
     4    1    5 1    
     5    2    6 1    
     6    2    3 1    
     7    2   30 1    
     8    3    7 1    
     9    3   31 1    
    10    4   32 1    
    11    4   33 1    
    12    4   34 1    
    13    5   35 1    
    14    5   36 1    
    15    5   37 1    
    16    6    8 2    
    17    6   38 1    
    18    7    9 1    
    19    7   10 2    
    20    8   11 1    
    21    8   12 1    
    22    9   13 1    
    23   13   14 1    
    24   13   15 1    
    25   13   39 1    
    26   14   16 ar   
    27   14   17 ar   
    28   15   18 3    
    29   16   19 ar   
    30   16   40 1    
    31   17   20 ar   
    32   17   41 1    
    33   19   21 1    
    34   19   22 ar   
    35   20   22 ar   
    36   20   42 1    
    37   21   23 1    
    38   22   24 1    
    39   23   25 ar   
    40   23   26 ar   
    41   25   27 ar   
    42   25   43 1    
    43   26   28 ar   
    44   26   44 1    
    45   27   29 ar   
    46   27   45 1    
    47   28   29 ar   
    48   28   46 1    
    49   29   47 1    
@<TRIPOS>SUBSTRUCTURE
     1 UNK         1 GROUP             0       ****    0 ROOT    
