@<TRIPOS>MOLECULE
title: molecule 1
21   20    1
SMALL
USER_CHARGES


@<TRIPOS>ATOM
      1 N1          9.7586   -0.5762    0.4130 N.pl3     1 UNK         0.6449 
      2 O2         10.1733   -0.1270    1.4558 O.co2     1 UNK        -0.3113 
      3 O3          8.6805   -1.4991    0.5767 O.3       1 UNK        -0.3358 
      4 O4         10.1284   -0.3536   -0.7192 O.co2     1 UNK        -0.3113 
      5 C5          8.1552   -2.0523   -0.6252 C.3       1 UNK         0.1935 
      6 C6          7.0020   -2.9959   -0.2728 C.3       1 UNK         0.1400 
      7 O7          5.8704   -2.2251    0.0957 O.3       1 UNK        -0.4000 
      8 C8          4.7527   -3.0238    0.4469 C.3       1 UNK         0.1400 
      9 C9          3.5830   -2.1089    0.8199 C.3       1 UNK         0.1935 
     10 O10         3.0477   -1.5387   -0.3696 O.3       1 UNK        -0.3358 
     11 N11         1.9534   -0.6389   -0.1858 N.pl3     1 UNK         0.6449 
     12 O12         1.5800   -0.4480    0.9510 O.co2     1 UNK        -0.3113 
     13 O13         1.5306   -0.1742   -1.2186 O.co2     1 UNK        -0.3113 
     14 H14         7.8096   -1.2709   -1.3041 H         1 UNK         0.0600 
     15 H15         8.9394   -2.6156   -1.1332 H         1 UNK         0.0600 
     16 H16         6.7521   -3.6054   -1.1425 H         1 UNK         0.0300 
     17 H17         7.2955   -3.6735    0.5305 H         1 UNK         0.0300 
     18 H18         4.4711   -3.6886   -0.3712 H         1 UNK         0.0300 
     19 H19         5.0136   -3.6478    1.3030 H         1 UNK         0.0300 
     20 H20         2.8090   -2.6971    1.3151 H         1 UNK         0.0600 
     21 H21         3.9148   -1.3367    1.5159 H         1 UNK         0.0600 
@<TRIPOS>BOND
     1    1    2 2    
     2    1    3 1    
     3    1    4 1    
     4    3    5 1    
     5    5    6 1    
     6    5   14 1    
     7    5   15 1    
     8    6    7 1    
     9    6   16 1    
    10    6   17 1    
    11    7    8 1    
    12    8    9 1    
    13    8   18 1    
    14    8   19 1    
    15    9   10 1    
    16    9   20 1    
    17    9   21 1    
    18   10   11 1    
    19   11   12 1    
    20   11   13 2    
@<TRIPOS>SUBSTRUCTURE
     1 UNK         1 GROUP             0       ****    0 ROOT    
