@<TRIPOS>MOLECULE
title: molecule 1
14   13    1
SMALL
USER_CHARGES


@<TRIPOS>ATOM
      1 C1         -0.0582    0.1133    0.1563 C.3       1 UNK        -0.1303 
      2 N2         -0.4540   -0.5838   -1.0718 N.pl3     1 UNK        -0.2219 
      3 C3         -0.3345   -1.9431   -1.1998 C.2       1 UNK         0.5542 
      4 C4         -0.9815    0.2756   -2.1405 C.3       1 UNK        -0.1303 
      5 N5         -0.7506   -2.3947   -2.4016 N.pl3     1 UNK        -0.7839 
      6 S6          0.2477   -3.0100   -0.0581 S.2       1 UNK        -0.4762 
      7 H7         -0.2178    1.1895    0.0923 H         1 UNK         0.0600 
      8 H8         -0.6352   -0.2501    1.0076 H         1 UNK         0.0600 
      9 H9          1.0006   -0.0458    0.3644 H         1 UNK         0.0600 
     10 H10        -2.0040   -0.0078   -2.3937 H         1 UNK         0.0600 
     11 H11        -1.0000    1.3269   -1.8534 H         1 UNK         0.0600 
     12 H12        -0.3662    0.1968   -3.0377 H         1 UNK         0.0600 
     13 H13        -0.7048   -3.3835   -2.5994 H         1 UNK         0.4142 
     14 H14        -1.1006   -1.7378   -3.0831 H         1 UNK         0.4142 
@<TRIPOS>BOND
     1    1    2 1    
     2    1    7 1    
     3    1    8 1    
     4    1    9 1    
     5    2    3 1    
     6    2    4 1    
     7    3    5 1    
     8    3    6 2    
     9    4   10 1    
    10    4   11 1    
    11    4   12 1    
    12    5   13 1    
    13    5   14 1    
@<TRIPOS>SUBSTRUCTURE
     1 UNK         1 GROUP             0       ****    0 ROOT    
