@<TRIPOS>MOLECULE
title: molecule 1
41   41    1
SMALL
USER_CHARGES


@<TRIPOS>ATOM
      1 C1          3.7457   -5.2912    0.5835 C.2       1 UNK         0.5100 
      2 O2          3.3256   -5.0110    1.7073 O.2       1 UNK        -0.4300 
      3 C3          3.9771   -4.2718   -0.5579 C.3       1 UNK         0.0100 
      4 O4          4.0544   -6.5308    0.1660 O.3       1 UNK        -0.3300 
      5 N5          4.1416   -2.8726   -0.0684 N.am      1 UNK        -0.0317 
      6 C6          2.8270   -4.4343   -1.5830 C.3       1 UNK        -0.1800 
      7 C7          3.9121   -7.6246    1.0556 C.3       1 UNK         0.1600 
      8 C8          5.2270   -2.5436    0.6886 C.2       1 UNK         0.5000 
      9 C9          3.2550   -1.8523   -0.5413 C.ar      1 UNK        -0.0383 
     10 O10         6.1181   -3.3514    0.9562 O.2       1 UNK        -0.5000 
     11 C11         5.3983   -1.1039    1.1998 C.3       1 UNK         0.1400 
     12 C12         3.5826   -1.1181   -1.7153 C.ar      1 UNK        -0.1150 
     13 C13         2.0421   -1.5702    0.1447 C.ar      1 UNK        -0.1150 
     14 O14         4.4423   -0.8544    2.2166 O.3       1 UNK        -0.4000 
     15 C15         2.7125   -0.1092   -2.1766 C.ar      1 UNK        -0.1150 
     16 C16         4.8597   -1.3890   -2.4966 C.3       1 UNK        -0.0650 
     17 C17         1.1852   -0.5592   -0.3367 C.ar      1 UNK        -0.1150 
     18 C18         1.6235   -2.3366    1.3880 C.3       1 UNK        -0.0650 
     19 C19         4.4984    0.4750    2.7012 C.3       1 UNK         0.1100 
     20 C20         1.5191    0.1709   -1.4899 C.ar      1 UNK        -0.1150 
     21 H21         4.9049   -4.5388   -1.0659 H         1 UNK         0.0600 
     22 H22         2.9788   -3.8104   -2.4632 H         1 UNK         0.0600 
     23 H23         2.7620   -5.4612   -1.9446 H         1 UNK         0.0600 
     24 H24         1.8560   -4.1827   -1.1551 H         1 UNK         0.0600 
     25 H25         4.2058   -8.5483    0.5571 H         1 UNK         0.0300 
     26 H26         4.5449   -7.4958    1.9346 H         1 UNK         0.0300 
     27 H27         2.8766   -7.7282    1.3820 H         1 UNK         0.0300 
     28 H28         5.3017   -0.3868    0.3843 H         1 UNK         0.0300 
     29 H29         6.4035   -0.9826    1.6071 H         1 UNK         0.0300 
     30 H30         2.9563    0.4561   -3.0641 H         1 UNK         0.1150 
     31 H31         4.8421   -0.8920   -3.4669 H         1 UNK         0.0600 
     32 H32         5.7276   -1.0221   -1.9493 H         1 UNK         0.0600 
     33 H33         4.9930   -2.4553   -2.6774 H         1 UNK         0.0600 
     34 H34         0.2615   -0.3391    0.1782 H         1 UNK         0.1150 
     35 H35         1.2363   -3.3171    1.1124 H         1 UNK         0.0600 
     36 H36         2.4571   -2.4739    2.0750 H         1 UNK         0.0600 
     37 H37         0.8397   -1.8078    1.9308 H         1 UNK         0.0600 
     38 H38         5.4772    0.6994    3.1269 H         1 UNK         0.0300 
     39 H39         4.2879    1.1917    1.9063 H         1 UNK         0.0300 
     40 H40         3.7510    0.6110    3.4827 H         1 UNK         0.0300 
     41 H41         0.8567    0.9440   -1.8506 H         1 UNK         0.1150 
@<TRIPOS>BOND
     1    1    2 2    
     2    1    3 1    
     3    1    4 1    
     4    3    5 1    
     5    3    6 1    
     6    3   21 1    
     7    4    7 1    
     8    5    8 am   BACKBONE|DICT|INTERRES
     9    5    9 1    
    10    6   22 1    
    11    6   23 1    
    12    6   24 1    
    13    7   25 1    
    14    7   26 1    
    15    7   27 1    
    16    8   10 2    
    17    8   11 1    
    18    9   12 ar   
    19    9   13 ar   
    20   11   14 1    
    21   11   28 1    
    22   11   29 1    
    23   12   15 ar   
    24   12   16 1    
    25   13   17 ar   
    26   13   18 1    
    27   14   19 1    
    28   15   20 ar   
    29   15   30 1    
    30   16   31 1    
    31   16   32 1    
    32   16   33 1    
    33   17   20 ar   
    34   17   34 1    
    35   18   35 1    
    36   18   36 1    
    37   18   37 1    
    38   19   38 1    
    39   19   39 1    
    40   19   40 1    
    41   20   41 1    
@<TRIPOS>SUBSTRUCTURE
     1 UNK         1 GROUP             0       ****    0 ROOT    
