@<TRIPOS>MOLECULE
title: molecule 1
22   22    1
SMALL
USER_CHARGES


@<TRIPOS>ATOM
      1 C1          2.2844   -2.5027    0.0891 C.ar      1 UNK        -0.1150 
      2 C2          1.0550   -1.8144    0.0855 C.ar      1 UNK         0.1800 
      3 C3          3.5053   -1.7971    0.0574 C.ar      1 UNK         0.0850 
      4 Cl4        -0.4174   -2.7172    0.1365 Cl        1 UNK        -0.1800 
      5 C5          1.0396   -0.4037    0.0388 C.ar      1 UNK         0.1800 
      6 C6          3.4825   -0.3830   -0.0056 C.ar      1 UNK        -0.1150 
      7 N7          4.7020   -2.5645    0.0460 N.am      1 UNK        -0.3850 
      8 Cl8        -0.4512    0.4698    0.0325 Cl        1 UNK        -0.1800 
      9 C9          2.2546    0.3064   -0.0097 C.ar      1 UNK        -0.1150 
     10 C10         5.9394   -2.1996    0.4301 C.2       1 UNK         0.5000 
     11 O11         6.2267   -1.1016    0.9066 O.2       1 UNK        -0.5000 
     12 C12         7.0211   -3.2739    0.2771 C.3       1 UNK        -0.1200 
     13 C13         8.4131   -2.6912   -0.0126 C.3       1 UNK        -0.1800 
     14 H14         2.2857   -3.5826    0.1230 H         1 UNK         0.1150 
     15 H15         4.3929    0.1934   -0.0648 H         1 UNK         0.1150 
     16 H16         4.5961   -3.5286   -0.2340 H         1 UNK         0.3000 
     17 H17         2.2466    1.3855   -0.0556 H         1 UNK         0.1150 
     18 H18         7.0522   -3.8667    1.1917 H         1 UNK         0.0600 
     19 H19         6.7442   -3.9551   -0.5288 H         1 UNK         0.0600 
     20 H20         9.1407   -3.4888   -0.1632 H         1 UNK         0.0600 
     21 H21         8.4065   -2.0759   -0.9131 H         1 UNK         0.0600 
     22 H22         8.7687   -2.0750    0.8140 H         1 UNK         0.0600 
@<TRIPOS>BOND
     1    1    2 ar   
     2    1    3 ar   
     3    1   14 1    
     4    2    4 1    
     5    2    5 ar   
     6    3    6 ar   
     7    3    7 1    
     8    5    8 1    
     9    5    9 ar   
    10    6    9 ar   
    11    6   15 1    
    12    7   10 am   BACKBONE|DICT|INTERRES
    13    7   16 1    
    14    9   17 1    
    15   10   11 2    
    16   10   12 1    
    17   12   13 1    
    18   12   18 1    
    19   12   19 1    
    20   13   20 1    
    21   13   21 1    
    22   13   22 1    
@<TRIPOS>SUBSTRUCTURE
     1 UNK         1 GROUP             0       ****    0 ROOT    
