@<TRIPOS>MOLECULE
title: molecule 1
12   11    1
SMALL
USER_CHARGES


@<TRIPOS>ATOM
      1 O1          0.0219    0.1901    0.0894 O.3       1 UNK        -0.6830 
      2 C2          1.1698   -0.6309    0.0872 C.3       1 UNK         0.1450 
      3 C3          2.4316    0.2416    0.0991 C.3       1 UNK        -0.1200 
      4 C4          3.7198   -0.5889    0.0974 C.3       1 UNK        -0.1800 
      5 H5         -0.7447   -0.3627    0.0820 H         1 UNK         0.4180 
      6 H6          1.1435   -1.2823    0.9614 H         1 UNK         0.0600 
      7 H7          1.1503   -1.2682   -0.7975 H         1 UNK         0.0600 
      8 H8          2.4289    0.9015   -0.7693 H         1 UNK         0.0600 
      9 H9          2.4222    0.8875    0.9779 H         1 UNK         0.0600 
     10 H10         4.5981    0.0570    0.1059 H         1 UNK         0.0600 
     11 H11         3.7733   -1.2346    0.9743 H         1 UNK         0.0600 
     12 H12         3.7801   -1.2205   -0.7893 H         1 UNK         0.0600 
@<TRIPOS>BOND
     1    1    2 1    
     2    1    5 1    
     3    2    3 1    
     4    2    6 1    
     5    2    7 1    
     6    3    4 1    
     7    3    8 1    
     8    3    9 1    
     9    4   10 1    
    10    4   11 1    
    11    4   12 1    
@<TRIPOS>SUBSTRUCTURE
     1 UNK         1 GROUP             0       ****    0 ROOT    
