@<TRIPOS>MOLECULE
title: molecule 1
8   7    1
SMALL
USER_CHARGES


@<TRIPOS>ATOM
      1 C1          1.4352   -2.4245    1.0455 C.3       1 UNK         0.0784 
      2 C2          1.4327   -1.2036    0.1188 C.3       1 UNK        -0.2944 
      3 Cl3        -0.0366   -1.2324   -0.8891 Cl        1 UNK         0.0120 
      4 Cl4         1.4555    0.2823    1.1022 Cl        1 UNK         0.0120 
      5 Cl5         2.8762   -1.2535   -0.9249 Cl        1 UNK         0.0120 
      6 H6          0.5625   -2.4242    1.6992 H         1 UNK         0.0600 
      7 H7          1.4215   -3.3527    0.4736 H         1 UNK         0.0600 
      8 H8          2.3236   -2.4369    1.6776 H         1 UNK         0.0600 
@<TRIPOS>BOND
     1    1    2 1    
     2    1    6 1    
     3    1    7 1    
     4    1    8 1    
     5    2    3 1    
     6    2    4 1    
     7    2    5 1    
@<TRIPOS>SUBSTRUCTURE
     1 UNK         1 GROUP             0       ****    0 ROOT    
