@<TRIPOS>MOLECULE
title: molecule 1
27   31    1
SMALL
USER_CHARGES


@<TRIPOS>ATOM
      1 C1          1.0553   -2.5538    1.3761 C.3       1 UNK         0.1162 
      2 O2         -0.1741   -2.5730    0.6294 O.3       1 UNK        -0.3524 
      3 C3          0.8808   -3.4685    0.2157 C.3       1 UNK         0.1162 
      4 C4          2.1590   -1.5826    0.9648 C.3       1 UNK        -0.0600 
      5 C5          1.9761   -3.0090   -0.7393 C.3       1 UNK        -0.0600 
      6 C6          3.5504   -2.3219    1.1015 C.3       1 UNK        -0.0600 
      7 C7          1.9468   -1.4927   -0.5582 C.3       1 UNK        -0.1200 
      8 C8          3.3014   -3.4037   -0.0366 C.3       1 UNK        -0.0600 
      9 C9          5.0836   -2.0361    0.7789 C.3       1 UNK         0.2000 
     10 C10         4.6381   -3.5580   -0.8061 C.3       1 UNK         0.2000 
     11 C11         5.2510   -1.3663   -0.5904 C.2       1 UNK         0.1200 
     12 C12         5.6109   -3.4451    0.3976 C.3       1 UNK         0.2716 
     13 Cl13        5.9868   -1.2937    2.1352 Cl        1 UNK        -0.2000 
     14 C14         4.9609   -2.2668   -1.5205 C.2       1 UNK         0.1200 
     15 Cl15        4.7806   -5.0687   -1.7467 Cl        1 UNK        -0.2000 
     16 Cl16        5.8769    0.2359   -0.7362 Cl        1 UNK        -0.1200 
     17 Cl17        5.3889   -4.6715    1.6906 Cl        1 UNK        -0.1358 
     18 Cl18        7.3382   -3.4485   -0.0973 Cl        1 UNK        -0.1358 
     19 Cl19        5.1102   -2.1982   -3.2388 Cl        1 UNK        -0.1200 
     20 H20         1.0240   -2.9555    2.3870 H         1 UNK         0.0600 
     21 H21         0.7249   -4.5297    0.4010 H         1 UNK         0.0600 
     22 H22         2.0105   -0.6323    1.4959 H         1 UNK         0.0600 
     23 H23         1.8420   -3.3794   -1.7558 H         1 UNK         0.0600 
     24 H24         3.7139   -1.2519    1.0175 H         1 UNK         0.0600 
     25 H25         2.7187   -0.9473   -1.0951 H         1 UNK         0.0600 
     26 H26         0.9924   -1.0443   -0.8393 H         1 UNK         0.0600 
     27 H27         3.1185   -4.3718    0.4327 H         1 UNK         0.0600 
@<TRIPOS>BOND
     1    1    2 1    
     2    1    3 1    
     3    1    4 1    
     4    1   20 1    
     5    2    3 1    
     6    3    5 1    
     7    3   21 1    
     8    4    6 1    
     9    4    7 1    
    10    4   22 1    
    11    5    7 1    
    12    5    8 1    
    13    5   23 1    
    14    6    9 1    
    15    6    8 1    
    16    6   24 1    
    17    7   25 1    
    18    7   26 1    
    19    8   10 1    
    20    8   27 1    
    21    9   11 1    
    22    9   12 1    
    23    9   13 1    
    24   10   14 1    
    25   10   12 1    
    26   10   15 1    
    27   11   14 2    
    28   11   16 1    
    29   12   17 1    
    30   12   18 1    
    31   14   19 1    
@<TRIPOS>SUBSTRUCTURE
     1 UNK         1 GROUP             0       ****    0 ROOT    
