@<TRIPOS>MOLECULE
title: molecule 1
36   37    1
SMALL
USER_CHARGES


@<TRIPOS>ATOM
      1 Cl1         6.0779   -1.3331    2.6553 Cl        1 UNK         0.0120 
      2 C2          5.8813   -0.8856    0.9369 C.3       1 UNK        -0.2944 
      3 C3          5.9116   -2.1148   -0.0229 C.3       1 UNK         0.4284 
      4 Cl4         7.2152    0.2185    0.5042 Cl        1 UNK         0.0120 
      5 Cl5         4.3498    0.0093    0.7324 Cl        1 UNK         0.0120 
      6 C6          7.1730   -2.9732    0.0989 C.ar      1 UNK        -0.1150 
      7 C7          4.6316   -2.9596   -0.0942 C.ar      1 UNK        -0.1150 
      8 C8          7.2898   -3.9749    1.0874 C.ar      1 UNK        -0.1150 
      9 C9          8.2447   -2.7767   -0.7988 C.ar      1 UNK        -0.1150 
     10 C10         4.1287   -3.3321   -1.3600 C.ar      1 UNK        -0.1150 
     11 C11         3.9383   -3.3910    1.0596 C.ar      1 UNK        -0.1150 
     12 C12         8.4568   -4.7569    1.1779 C.ar      1 UNK        -0.1150 
     13 C13         9.4123   -3.5587   -0.7084 C.ar      1 UNK        -0.1150 
     14 C14         2.9592   -4.1078   -1.4702 C.ar      1 UNK        -0.1150 
     15 C15         2.7683   -4.1671    0.9502 C.ar      1 UNK        -0.1150 
     16 C16         9.5298   -4.5609    0.2862 C.ar      1 UNK         0.0850 
     17 C17         2.2644   -4.5336   -0.3216 C.ar      1 UNK         0.0850 
     18 O18        10.6344   -5.3698    0.4460 O.3       1 UNK        -0.2850 
     19 O19         1.1285   -5.2892   -0.5187 O.3       1 UNK        -0.2850 
     20 C20        11.7286   -5.1895   -0.4410 C.3       1 UNK         0.1100 
     21 C21         0.4118   -5.7288    0.6258 C.3       1 UNK         0.1100 
     22 H22         5.9689   -1.6638   -1.0149 H         1 UNK         0.0600 
     23 H23         6.4880   -4.1505    1.7880 H         1 UNK         0.1150 
     24 H24         8.1790   -2.0180   -1.5649 H         1 UNK         0.1150 
     25 H25         4.6396   -3.0250   -2.2609 H         1 UNK         0.1150 
     26 H26         4.2911   -3.1401    2.0458 H         1 UNK         0.1150 
     27 H27         8.5295   -5.5170    1.9420 H         1 UNK         0.1150 
     28 H28        10.2052   -3.3693   -1.4157 H         1 UNK         0.1150 
     29 H29         2.5914   -4.3801   -2.4486 H         1 UNK         0.1150 
     30 H30         2.2755   -4.4706    1.8612 H         1 UNK         0.1150 
     31 H31        12.5176   -5.8974   -0.1872 H         1 UNK         0.0300 
     32 H32        11.4384   -5.3768   -1.4757 H         1 UNK         0.0300 
     33 H33        12.1476   -4.1857   -0.3586 H         1 UNK         0.0300 
     34 H34        -0.4547   -6.3081    0.3069 H         1 UNK         0.0300 
     35 H35         1.0249   -6.3736    1.2569 H         1 UNK         0.0300 
     36 H36         0.0463   -4.8869    1.2153 H         1 UNK         0.0300 
@<TRIPOS>BOND
     1    1    2 1    
     2    2    3 1    
     3    2    4 1    
     4    2    5 1    
     5    3    6 1    
     6    3    7 1    
     7    3   22 1    
     8    6    8 ar   
     9    6    9 ar   
    10    7   10 ar   
    11    7   11 ar   
    12    8   12 ar   
    13    8   23 1    
    14    9   13 ar   
    15    9   24 1    
    16   10   14 ar   
    17   10   25 1    
    18   11   15 ar   
    19   11   26 1    
    20   12   16 ar   
    21   12   27 1    
    22   13   16 ar   
    23   13   28 1    
    24   14   17 ar   
    25   14   29 1    
    26   15   17 ar   
    27   15   30 1    
    28   16   18 1    
    29   17   19 1    
    30   18   20 1    
    31   19   21 1    
    32   20   31 1    
    33   20   32 1    
    34   20   33 1    
    35   21   34 1    
    36   21   35 1    
    37   21   36 1    
@<TRIPOS>SUBSTRUCTURE
     1 UNK         1 GROUP             0       ****    0 ROOT    
