@<TRIPOS>MOLECULE
title: molecule 1
9   8    1
SMALL
USER_CHARGES


@<TRIPOS>ATOM
      1 C1          0.0015   -1.3189    0.1027 C.3       1 UNK         0.0600 
      2 C2          1.4061   -1.9286    0.0587 C.3       1 UNK        -0.1800 
      3 S3          0.1330    0.4879    0.0718 S.3       1 UNK        -0.3350 
      4 H4         -0.5892   -1.6520   -0.7509 H         1 UNK         0.0600 
      5 H5         -0.5231   -1.6267    1.0075 H         1 UNK         0.0600 
      6 H6          1.3560   -3.0174    0.0762 H         1 UNK         0.0600 
      7 H7          1.9358   -1.6356   -0.8483 H         1 UNK         0.0600 
      8 H8          2.0021   -1.6102    0.9145 H         1 UNK         0.0600 
      9 H9         -1.1809    0.7260    0.1178 H         1 UNK         0.1550 
@<TRIPOS>BOND
     1    1    2 1    
     2    1    3 1    
     3    1    4 1    
     4    1    5 1    
     5    2    6 1    
     6    2    7 1    
     7    2    8 1    
     8    3    9 1    
@<TRIPOS>SUBSTRUCTURE
     1 UNK         1 GROUP             0       ****    0 ROOT    
