@<TRIPOS>MOLECULE
title: molecule 1
7   7    1
SMALL
USER_CHARGES


@<TRIPOS>ATOM
      1 C1          0.7749    0.2313    0.1003 C.3       1 UNK         0.0562 
      2 C2          0.0190   -1.0692    0.0759 C.3       1 UNK         0.0562 
      3 O3          1.4511   -1.0327    0.1398 O.3       1 UNK        -0.3524 
      4 H4          0.8205    0.7988    1.0275 H         1 UNK         0.0600 
      5 H5          0.9036    0.7854   -0.8272 H         1 UNK         0.0600 
      6 H6         -0.3836   -1.4289   -0.8688 H         1 UNK         0.0600 
      7 H7         -0.4667   -1.4155    0.9859 H         1 UNK         0.0600 
@<TRIPOS>BOND
     1    1    2 1    
     2    1    3 1    
     3    1    4 1    
     4    1    5 1    
     5    2    3 1    
     6    2    6 1    
     7    2    7 1    
@<TRIPOS>SUBSTRUCTURE
     1 UNK         1 GROUP             0       ****    0 ROOT    
