@<TRIPOS>MOLECULE
title: molecule 1
5   4    1
SMALL
USER_CHARGES


@<TRIPOS>ATOM
      1 C1          1.4267   -0.9973   -0.3401 C.3       1 UNK        -0.2949 
      2 Br2         2.3391   -2.6448    0.3028 Br        1 UNK         0.0039 
      3 Br3        -0.5008   -0.9915    0.1547 Br        1 UNK         0.0039 
      4 Br4         2.3490    0.6446    0.3028 Br        1 UNK         0.0039 
      5 H5          1.4833   -0.9975   -1.4287 H         1 UNK         0.2832 
@<TRIPOS>BOND
     1    1    2 1    
     2    1    3 1    
     3    1    4 1    
     4    1    5 1    
@<TRIPOS>SUBSTRUCTURE
     1 UNK         1 GROUP             0       ****    0 ROOT    
