@<TRIPOS>MOLECULE
title: molecule 1
22   24    1
SMALL
USER_CHARGES


@<TRIPOS>ATOM
      1 C1          3.4289   -3.6896   -0.7134 C.3       1 UNK         0.2000 
      2 C2          3.8671   -2.2391   -1.0569 C.3       1 UNK         0.2716 
      3 C3          3.8403   -3.7292    0.7487 C.2       1 UNK         0.1200 
      4 C4          1.8771   -3.5492   -0.7878 C.3       1 UNK        -0.0600 
      5 Cl5         4.1043   -4.9523   -1.7792 Cl        1 UNK        -0.2000 
      6 C6          3.0888   -1.6409    0.1464 C.3       1 UNK         0.2000 
      7 Cl7         5.6419   -1.9947   -0.9365 Cl        1 UNK        -0.1358 
      8 Cl8         3.3128   -1.6545   -2.6607 Cl        1 UNK        -0.1358 
      9 C9          3.6396   -2.5177    1.2571 C.2       1 UNK         0.1200 
     10 Cl10        4.6152   -5.1148    1.4273 Cl        1 UNK        -0.1200 
     11 C11         1.6447   -2.1204   -0.1880 C.3       1 UNK        -0.0600 
     12 C12         1.0309   -4.5334    0.0673 C.3       1 UNK         0.0970 
     13 Cl13        3.2546    0.1255    0.3444 Cl        1 UNK        -0.2000 
     14 Cl14        4.0733   -1.8585    2.7927 Cl        1 UNK        -0.1200 
     15 C15         0.7272   -2.3640    0.9852 C.2       1 UNK        -0.1150 
     16 C16         0.3918   -3.6490    1.1101 C.2       1 UNK        -0.1150 
     17 Cl17       -0.1883   -5.3579   -0.9379 Cl        1 UNK        -0.2000 
     18 H18         1.5444   -3.5748   -1.8264 H         1 UNK         0.0600 
     19 H19         1.1505   -1.4651   -0.9064 H         1 UNK         0.0600 
     20 H20         1.6358   -5.3058    0.5428 H         1 UNK         0.1030 
     21 H21         0.3868   -1.5641    1.6263 H         1 UNK         0.1150 
     22 H22        -0.2600   -4.0466    1.8741 H         1 UNK         0.1150 
@<TRIPOS>BOND
     1    1    2 1    
     2    1    3 1    
     3    1    4 1    
     4    1    5 1    
     5    2    6 1    
     6    2    7 1    
     7    2    8 1    
     8    3    9 2    
     9    3   10 1    
    10    4   11 1    
    11    4   12 1    
    12    4   18 1    
    13    6   13 1    
    14    6   11 1    
    15    6    9 1    
    16    9   14 1    
    17   11   15 1    
    18   11   19 1    
    19   12   16 1    
    20   12   17 1    
    21   12   20 1    
    22   15   16 2    
    23   15   21 1    
    24   16   22 1    
@<TRIPOS>SUBSTRUCTURE
     1 UNK         1 GROUP             0       ****    0 ROOT    
