@<TRIPOS>MOLECULE
title: molecule 1
40   41    1
SMALL
USER_CHARGES


@<TRIPOS>ATOM
      1 N1          2.3844   -3.7402    0.4910 N.pl3     1 UNK         0.0656 
      2 C2          3.6341   -3.0585    0.1761 C.3       1 UNK         0.0625 
      3 N3          2.2582   -4.4765    1.6217 N.2       1 UNK        -0.5282 
      4 C4          1.2380   -3.8380   -0.1885 C.ar      1 UNK         0.2778 
      5 C5          3.4925   -1.5090    0.0268 C.3       1 UNK         0.2050 
      6 C6          4.2998   -3.7416   -1.0419 C.3       1 UNK        -0.0050 
      7 C7          1.0133   -4.9438    1.5300 C.ar      1 UNK         0.5281 
      8 N8          0.3178   -4.5791    0.4126 N.2       1 UNK        -0.6329 
      9 C9          3.0201   -0.6804    1.2709 C.3       1 UNK         0.0000 
     10 O10         2.6793   -1.2057   -1.0937 O.3       1 UNK        -0.6830 
     11 C11         5.6947   -3.2241   -1.3497 C.ar      1 UNK        -0.1150 
     12 C12         3.2404    0.8210    0.9775 C.3       1 UNK        -0.1800 
     13 C13         1.5273   -0.8783    1.6204 C.3       1 UNK        -0.1800 
     14 C14         3.8679   -1.0348    2.5101 C.3       1 UNK        -0.1800 
     15 C15         6.7824   -3.5957   -0.5317 C.ar      1 UNK        -0.1150 
     16 C16         5.9096   -2.3684   -2.4509 C.ar      1 UNK        -0.1150 
     17 C17         8.0755   -3.1122   -0.8109 C.ar      1 UNK        -0.1150 
     18 C18         7.2028   -1.8849   -2.7295 C.ar      1 UNK        -0.1150 
     19 C19         8.2862   -2.2564   -1.9097 C.ar      1 UNK         0.1800 
     20 Cl20        9.8701   -1.6633   -2.2508 Cl        1 UNK        -0.1800 
     21 H21         4.3095   -3.2404    1.0126 H         1 UNK         0.0600 
     22 H22         1.0722   -3.3599   -1.1426 H         1 UNK         0.1146 
     23 H23         4.4843   -1.1317   -0.2228 H         1 UNK         0.0600 
     24 H24         4.3743   -4.8154   -0.8637 H         1 UNK         0.0600 
     25 H25         3.6717   -3.6309   -1.9269 H         1 UNK         0.0600 
     26 H26         0.5912   -5.5765    2.2968 H         1 UNK         0.0525 
     27 H27         2.6860   -0.2693   -1.2220 H         1 UNK         0.4180 
     28 H28         2.9771    1.4381    1.8375 H         1 UNK         0.0600 
     29 H29         4.2825    1.0339    0.7362 H         1 UNK         0.0600 
     30 H30         2.6319    1.1658    0.1411 H         1 UNK         0.0600 
     31 H31         1.2151   -0.1843    2.4014 H         1 UNK         0.0600 
     32 H32         0.8782   -0.7052    0.7619 H         1 UNK         0.0600 
     33 H33         1.3182   -1.8756    2.0008 H         1 UNK         0.0600 
     34 H34         3.6390   -0.3765    3.3489 H         1 UNK         0.0600 
     35 H35         3.6823   -2.0533    2.8514 H         1 UNK         0.0600 
     36 H36         4.9347   -0.9421    2.3032 H         1 UNK         0.0600 
     37 H37         6.6270   -4.2507    0.3132 H         1 UNK         0.1150 
     38 H38         5.0828   -2.0757   -3.0817 H         1 UNK         0.1150 
     39 H39         8.9050   -3.3984   -0.1811 H         1 UNK         0.1150 
     40 H40         7.3621   -1.2283   -3.5722 H         1 UNK         0.1150 
@<TRIPOS>BOND
     1    1    2 1    
     2    1    3 ar   
     3    1    4 ar   
     4    2    5 1    
     5    2    6 1    
     6    2   21 1    
     7    3    7 ar   
     8    4    8 ar   
     9    4   22 1    
    10    5    9 1    
    11    5   10 1    
    12    5   23 1    
    13    6   11 1    
    14    6   24 1    
    15    6   25 1    
    16    7    8 ar   
    17    7   26 1    
    18    9   12 1    
    19    9   13 1    
    20    9   14 1    
    21   10   27 1    
    22   11   15 ar   
    23   11   16 ar   
    24   12   28 1    
    25   12   29 1    
    26   12   30 1    
    27   13   31 1    
    28   13   32 1    
    29   13   33 1    
    30   14   34 1    
    31   14   35 1    
    32   14   36 1    
    33   15   17 ar   
    34   15   37 1    
    35   16   18 ar   
    36   16   38 1    
    37   17   19 ar   
    38   17   39 1    
    39   18   19 ar   
    40   18   40 1    
    41   19   20 1    
@<TRIPOS>SUBSTRUCTURE
     1 UNK         1 GROUP             0       ****    0 ROOT    
