@<TRIPOS>MOLECULE
title: molecule 1
22   24    1
SMALL
USER_CHARGES


@<TRIPOS>ATOM
      1 C1          2.8063   -2.1991    0.6403 C.3       1 UNK        -0.0600 
      2 C2          1.7575   -2.3654   -0.5085 C.3       1 UNK        -0.0600 
      3 C3          3.5609   -0.9064    0.2359 C.3       1 UNK        -0.0600 
      4 C4          1.9667   -2.0869    1.8876 C.2       1 UNK        -0.1150 
      5 C5          2.0709   -1.1473   -1.4196 C.3       1 UNK        -0.0600 
      6 C6          0.3615   -2.3568    0.1660 C.3       1 UNK        -0.1200 
      7 C7          2.4221   -0.0777   -0.3759 C.3       1 UNK        -0.1200 
      8 C8          4.3360   -1.2253   -1.0261 C.2       1 UNK        -0.1150 
      9 C9          0.6618   -2.1861    1.6338 C.2       1 UNK        -0.1150 
     10 C10         3.4476   -1.3705   -2.0130 C.2       1 UNK        -0.1150 
     11 H11         3.4735   -3.0584    0.7224 H         1 UNK         0.0600 
     12 H12         1.9037   -3.3023   -1.0487 H         1 UNK         0.0600 
     13 H13         4.1387   -0.4117    1.0171 H         1 UNK         0.0600 
     14 H14         2.4036   -1.9537    2.8662 H         1 UNK         0.1150 
     15 H15         1.3030   -0.8674   -2.1411 H         1 UNK         0.0600 
     16 H16        -0.1668   -3.2966    0.0033 H         1 UNK         0.0600 
     17 H17        -0.2677   -1.5414   -0.1921 H         1 UNK         0.0600 
     18 H18         1.6129    0.1596    0.3159 H         1 UNK         0.0600 
     19 H19         2.7702    0.8550   -0.8249 H         1 UNK         0.0600 
     20 H20         5.4081   -1.3444   -1.0779 H         1 UNK         0.1150 
     21 H21        -0.1201   -2.1402    2.3774 H         1 UNK         0.1150 
     22 H22         3.6396   -1.6330   -3.0428 H         1 UNK         0.1150 
@<TRIPOS>BOND
     1    1    2 1    
     2    1    3 1    
     3    1    4 1    
     4    1   11 1    
     5    2    5 1    
     6    2    6 1    
     7    2   12 1    
     8    3    7 1    
     9    3    8 1    
    10    3   13 1    
    11    4    9 2    
    12    4   14 1    
    13    5    7 1    
    14    5   10 1    
    15    5   15 1    
    16    6    9 1    
    17    6   16 1    
    18    6   17 1    
    19    7   18 1    
    20    7   19 1    
    21    8   10 2    
    22    8   20 1    
    23    9   21 1    
    24   10   22 1    
@<TRIPOS>SUBSTRUCTURE
     1 UNK         1 GROUP             0       ****    0 ROOT    
