@<TRIPOS>MOLECULE
title: molecule 1
24   24    1
SMALL
USER_CHARGES


@<TRIPOS>ATOM
      1 C1          0.1783   -4.0873    0.9344 C.3       1 UNK        -0.1800 
      2 C2          1.3053   -3.3568    0.1815 C.3       1 UNK         0.0000 
      3 C3          1.3131   -1.8629    0.5960 C.3       1 UNK        -0.1200 
      4 C4          2.6575   -4.0103    0.5499 C.3       1 UNK        -0.1200 
      5 C5          1.0339   -3.4822   -1.3352 C.3       1 UNK        -0.1800 
      6 C6          2.6038   -1.1311    0.2392 C.2       1 UNK         0.0000 
      7 C7          3.8574   -3.2323    0.0021 C.2       1 UNK         0.4700 
      8 C8          3.7603   -1.7655   -0.0418 C.2       1 UNK        -0.1150 
      9 C9          2.5084    0.3816    0.2513 C.3       1 UNK        -0.1800 
     10 O10         4.8609   -3.8431   -0.3594 O.2       1 UNK        -0.4700 
     11 H11         0.1350   -5.1415    0.6580 H         1 UNK         0.0600 
     12 H12         0.3230   -4.0388    2.0143 H         1 UNK         0.0600 
     13 H13        -0.7958   -3.6491    0.7145 H         1 UNK         0.0600 
     14 H14         1.1817   -1.7681    1.6748 H         1 UNK         0.0600 
     15 H15         0.4667   -1.3478    0.1395 H         1 UNK         0.0600 
     16 H16         2.6959   -5.0364    0.1826 H         1 UNK         0.0600 
     17 H17         2.7632   -4.0613    1.6339 H         1 UNK         0.0600 
     18 H18         1.0485   -4.5250   -1.6538 H         1 UNK         0.0600 
     19 H19         0.0562   -3.0760   -1.5967 H         1 UNK         0.0600 
     20 H20         1.7723   -2.9484   -1.9338 H         1 UNK         0.0600 
     21 H21         4.6526   -1.2084   -0.2878 H         1 UNK         0.1150 
     22 H22         3.4636    0.8448    0.0019 H         1 UNK         0.0600 
     23 H23         1.7682    0.7202   -0.4740 H         1 UNK         0.0600 
     24 H24         2.2080    0.7330    1.2387 H         1 UNK         0.0600 
@<TRIPOS>BOND
     1    1    2 1    
     2    1   11 1    
     3    1   12 1    
     4    1   13 1    
     5    2    3 1    
     6    2    4 1    
     7    2    5 1    
     8    3    6 1    
     9    3   14 1    
    10    3   15 1    
    11    4    7 1    
    12    4   16 1    
    13    4   17 1    
    14    5   18 1    
    15    5   19 1    
    16    5   20 1    
    17    6    8 2    
    18    6    9 1    
    19    7    8 1    
    20    7   10 2    
    21    8   21 1    
    22    9   22 1    
    23    9   23 1    
    24    9   24 1    
@<TRIPOS>SUBSTRUCTURE
     1 UNK         1 GROUP             0       ****    0 ROOT    
