@<TRIPOS>MOLECULE
title: molecule 1
15   14    1
SMALL
USER_CHARGES


@<TRIPOS>ATOM
      1 O1         -0.0289   -1.3096    0.2602 O.3       1 UNK        -0.6830 
      2 C2          1.1739   -1.8845   -0.2067 C.3       1 UNK         0.1450 
      3 C3          2.3940   -1.1740    0.4084 C.3       1 UNK        -0.0600 
      4 C4          3.6873   -1.9424    0.0984 C.3       1 UNK        -0.1800 
      5 C5          2.5073    0.2857   -0.0624 C.3       1 UNK        -0.1800 
      6 H6         -0.7554   -1.7704   -0.1312 H         1 UNK         0.4180 
      7 H7          1.1715   -2.9406    0.0655 H         1 UNK         0.0600 
      8 H8          1.2018   -1.8333   -1.2958 H         1 UNK         0.0600 
      9 H9          2.2719   -1.1695    1.4926 H         1 UNK         0.0600 
     10 H10         4.5498   -1.4651    0.5644 H         1 UNK         0.0600 
     11 H11         3.6374   -2.9651    0.4731 H         1 UNK         0.0600 
     12 H12         3.8728   -1.9897   -0.9752 H         1 UNK         0.0600 
     13 H13         3.3654    0.7798    0.3939 H         1 UNK         0.0600 
     14 H14         2.6259    0.3452   -1.1447 H         1 UNK         0.0600 
     15 H15         1.6207    0.8603    0.2068 H         1 UNK         0.0600 
@<TRIPOS>BOND
     1    1    2 1    
     2    1    6 1    
     3    2    3 1    
     4    2    7 1    
     5    2    8 1    
     6    3    4 1    
     7    3    5 1    
     8    3    9 1    
     9    4   10 1    
    10    4   11 1    
    11    4   12 1    
    12    5   13 1    
    13    5   14 1    
    14    5   15 1    
@<TRIPOS>SUBSTRUCTURE
     1 UNK         1 GROUP             0       ****    0 ROOT    
