@<TRIPOS>MOLECULE
title: molecule 1
11   10    1
SMALL
USER_CHARGES


@<TRIPOS>ATOM
      1 C1          3.7967   -1.9697    0.0770 C.3       1 UNK        -0.1800 
      2 C2          2.4716   -1.2880    0.4384 C.3       1 UNK         0.0970 
      3 C3          1.2682   -1.9564   -0.2432 C.3       1 UNK        -0.0060 
      4 Cl4         2.5594    0.4311   -0.0322 Cl        1 UNK        -0.2000 
      5 Cl5        -0.2643   -1.2327    0.3125 Cl        1 UNK        -0.2000 
      6 H6          4.6349   -1.4847    0.5779 H         1 UNK         0.0600 
      7 H7          3.7940   -3.0178    0.3773 H         1 UNK         0.0600 
      8 H8          3.9819   -1.9300   -0.9968 H         1 UNK         0.0600 
      9 H9          2.3392   -1.3139    1.5206 H         1 UNK         0.1030 
     10 H10         1.3148   -1.8528   -1.3277 H         1 UNK         0.1030 
     11 H11         1.2269   -3.0205   -0.0094 H         1 UNK         0.1030 
@<TRIPOS>BOND
     1    1    2 1    
     2    1    6 1    
     3    1    7 1    
     4    1    8 1    
     5    2    3 1    
     6    2    4 1    
     7    2    9 1    
     8    3    5 1    
     9    3   10 1    
    10    3   11 1    
@<TRIPOS>SUBSTRUCTURE
     1 UNK         1 GROUP             0       ****    0 ROOT    
