@<TRIPOS>MOLECULE
title: molecule 1
11   10    1
SMALL
USER_CHARGES


@<TRIPOS>ATOM
      1 C1          0.1826    0.2854    0.4463 C.3       1 UNK        -0.0167 
      2 C2         -0.8045    1.2824   -0.1809 C.3       1 UNK         0.0086 
      3 Cl3        -0.0856   -1.3602   -0.1875 Cl        1 UNK        -0.1358 
      4 Cl4         1.8555    0.7987    0.1092 Cl        1 UNK        -0.1358 
      5 C5         -2.2683    1.0092    0.1894 C.3       1 UNK        -0.1800 
      6 H6          0.0666    0.2464    1.5298 H         1 UNK         0.1597 
      7 H7         -0.5481    2.2901    0.1480 H         1 UNK         0.0600 
      8 H8         -0.6936    1.2780   -1.2658 H         1 UNK         0.0600 
      9 H9         -2.9236    1.7650   -0.2439 H         1 UNK         0.0600 
     10 H10        -2.6005    0.0378   -0.1772 H         1 UNK         0.0600 
     11 H11        -2.4110    1.0271    1.2702 H         1 UNK         0.0600 
@<TRIPOS>BOND
     1    1    2 1    
     2    1    3 1    
     3    1    4 1    
     4    1    6 1    
     5    2    5 1    
     6    2    7 1    
     7    2    8 1    
     8    5    9 1    
     9    5   10 1    
    10    5   11 1    
@<TRIPOS>SUBSTRUCTURE
     1 UNK         1 GROUP             0       ****    0 ROOT    
