@<TRIPOS>MOLECULE
title: molecule 1
10   9    1
SMALL
USER_CHARGES


@<TRIPOS>ATOM
      1 N1          3.5690   -1.8375    0.0793 N.am      1 UNK        -0.7600 
      2 C2          2.4906   -1.0519    0.0893 C.2       1 UNK         0.5567 
      3 O3          2.5805    0.1745    0.1011 O.2       1 UNK        -0.5000 
      4 C4          1.2596   -1.8225    0.0844 C.2       1 UNK        -0.1717 
      5 C5          0.0630   -1.2106    0.0930 C.2       1 UNK        -0.2300 
      6 H6          4.4872   -1.4181    0.0815 H         1 UNK         0.3800 
      7 H7          3.4662   -2.8414    0.0698 H         1 UNK         0.3800 
      8 H8          1.2934   -2.9029    0.0738 H         1 UNK         0.1150 
      9 H9         -0.8492   -1.7887    0.0893 H         1 UNK         0.1150 
     10 H10        -0.0314   -0.1337    0.1037 H         1 UNK         0.1150 
@<TRIPOS>BOND
     1    1    2 am   BACKBONE|DICT|INTERRES
     2    1    6 1    
     3    1    7 1    
     4    2    3 2    
     5    2    4 1    
     6    4    5 2    
     7    4    8 1    
     8    5    9 1    
     9    5   10 1    
@<TRIPOS>SUBSTRUCTURE
     1 UNK         1 GROUP             0       ****    0 ROOT    
