@<TRIPOS>MOLECULE
title: molecule 1
8   7    1
SMALL
USER_CHARGES


@<TRIPOS>ATOM
      1 Cl1         2.4939    0.4702    0.2898 Cl        1 UNK        -0.1358 
      2 C2          2.4178   -1.2206   -0.2724 C.3       1 UNK         0.1119 
      3 C3          1.2341   -1.9531    0.3723 C.3       1 UNK        -0.0060 
      4 Cl4         3.9371   -2.0641    0.1210 Cl        1 UNK        -0.1358 
      5 Cl5        -0.3150   -1.2365   -0.1444 Cl        1 UNK        -0.2000 
      6 H6          2.3242   -1.2059   -1.3586 H         1 UNK         0.1597 
      7 H7          1.2189   -3.0030    0.0789 H         1 UNK         0.1030 
      8 H8          1.2814   -1.9088    1.4607 H         1 UNK         0.1030 
@<TRIPOS>BOND
     1    1    2 1    
     2    2    3 1    
     3    2    4 1    
     4    2    6 1    
     5    3    5 1    
     6    3    7 1    
     7    3    8 1    
@<TRIPOS>SUBSTRUCTURE
     1 UNK         1 GROUP             0       ****    0 ROOT    
