@<TRIPOS>MOLECULE
title: molecule 1
33   34    1
SMALL
USER_CHARGES


@<TRIPOS>ATOM
      1 C1          3.8453   -0.0211   -1.0698 C.3       1 UNK        -0.1800 
      2 C2          3.8656   -0.9918    0.1350 C.3       1 UNK         0.2300 
      3 C3          2.6022   -1.8700    0.2217 C.ar      1 UNK        -0.1150 
      4 C4          5.1039   -1.8966   -0.0173 C.ar      1 UNK        -0.1150 
      5 C5          3.9122   -0.1133    1.4079 C.3       1 UNK        -0.1800 
      6 C6          2.5376   -2.8888    1.2024 C.ar      1 UNK        -0.1150 
      7 C7          1.4910   -1.6952   -0.6407 C.ar      1 UNK        -0.1150 
      8 C8          6.2188   -1.8165    0.8541 C.ar      1 UNK        -0.1150 
      9 C9          5.1407   -2.8423   -1.0701 C.ar      1 UNK        -0.1150 
     10 C10         1.4022   -3.7131    1.3178 C.ar      1 UNK        -0.1150 
     11 C11         0.3544   -2.5193   -0.5259 C.ar      1 UNK        -0.1150 
     12 C12         7.3315   -2.6619    0.6775 C.ar      1 UNK        -0.1150 
     13 C13         6.2522   -3.6879   -1.2473 C.ar      1 UNK        -0.1150 
     14 C14         0.3085   -3.5295    0.4528 C.ar      1 UNK         0.1500 
     15 C15         7.3501   -3.5986   -0.3720 C.ar      1 UNK         0.1500 
     16 O16        -0.7917   -4.3286    0.5648 O.3       1 UNK        -0.5850 
     17 O17         8.4302   -4.4155   -0.5385 O.3       1 UNK        -0.5850 
     18 H18         4.7648    0.5639   -1.1140 H         1 UNK         0.0600 
     19 H19         3.7560   -0.5477   -2.0205 H         1 UNK         0.0600 
     20 H20         3.0213    0.6904   -1.0046 H         1 UNK         0.0600 
     21 H21         3.9857   -0.7108    2.3172 H         1 UNK         0.0600 
     22 H22         4.7560    0.5775    1.3943 H         1 UNK         0.0600 
     23 H23         3.0095    0.4925    1.4961 H         1 UNK         0.0600 
     24 H24         3.3680   -3.0459    1.8752 H         1 UNK         0.1150 
     25 H25         1.4824   -0.9333   -1.4042 H         1 UNK         0.1150 
     26 H26         6.2486   -1.1133    1.6714 H         1 UNK         0.1150 
     27 H27         4.3065   -2.9260   -1.7513 H         1 UNK         0.1150 
     28 H28         1.3732   -4.4864    2.0715 H         1 UNK         0.1150 
     29 H29        -0.4816   -2.3707   -1.1935 H         1 UNK         0.1150 
     30 H30         8.1728   -2.5892    1.3512 H         1 UNK         0.1150 
     31 H31         6.2563   -4.4032   -2.0566 H         1 UNK         0.1150 
     32 H32        -1.4675   -4.1216   -0.0622 H         1 UNK         0.4350 
     33 H33         8.3405   -5.0061   -1.2704 H         1 UNK         0.4350 
@<TRIPOS>BOND
     1    1    2 1    
     2    1   18 1    
     3    1   19 1    
     4    1   20 1    
     5    2    3 1    
     6    2    4 1    
     7    2    5 1    
     8    3    6 ar   
     9    3    7 ar   
    10    4    8 ar   
    11    4    9 ar   
    12    5   21 1    
    13    5   22 1    
    14    5   23 1    
    15    6   10 ar   
    16    6   24 1    
    17    7   11 ar   
    18    7   25 1    
    19    8   12 ar   
    20    8   26 1    
    21    9   13 ar   
    22    9   27 1    
    23   10   14 ar   
    24   10   28 1    
    25   11   14 ar   
    26   11   29 1    
    27   12   15 ar   
    28   12   30 1    
    29   13   15 ar   
    30   13   31 1    
    31   14   16 1    
    32   15   17 1    
    33   16   32 1    
    34   17   33 1    
@<TRIPOS>SUBSTRUCTURE
     1 UNK         1 GROUP             0       ****    0 ROOT    
