@<TRIPOS>MOLECULE
title: molecule 1
26   27    1
SMALL
USER_CHARGES


@<TRIPOS>ATOM
      1 C1          2.2888   -1.5106   -0.6702 C.3       1 UNK        -0.0600 
      2 C2          1.0277   -0.8295   -0.0488 C.3       1 UNK        -0.1176 
      3 C3          3.6031   -1.0377   -0.0355 C.2       1 UNK         0.0000 
      4 C4          1.7981   -2.7871    0.0430 C.3       1 UNK        -0.1200 
      5 C5          1.3174   -1.8092    1.1345 C.3       1 UNK        -0.1188 
      6 C6         -0.3079   -1.0083   -0.8033 C.3       1 UNK        -0.1212 
      7 C7          1.0862    0.6820    0.2405 C.3       1 UNK        -0.1212 
      8 C8          3.6648   -1.0015    1.3106 C.2       1 UNK        -0.1150 
      9 C9          4.7405   -0.6515   -0.9559 C.3       1 UNK        -0.1800 
     10 C10         2.4345   -1.4008    2.1199 C.3       1 UNK        -0.0612 
     11 H11         2.3054   -1.5673   -1.7592 H         1 UNK         0.0600 
     12 H12         2.5894   -3.4692    0.3578 H         1 UNK         0.0600 
     13 H13         1.0132   -3.3407   -0.4715 H         1 UNK         0.0600 
     14 H14         0.4078   -2.1490    1.6311 H         1 UNK         0.0600 
     15 H15        -1.1538   -0.7044   -0.1859 H         1 UNK         0.0600 
     16 H16        -0.3349   -0.4011   -1.7088 H         1 UNK         0.0600 
     17 H17        -0.5096   -2.0302   -1.1176 H         1 UNK         0.0600 
     18 H18         0.2307    1.0061    0.8340 H         1 UNK         0.0600 
     19 H19         1.9741    0.9874    0.7905 H         1 UNK         0.0600 
     20 H20         1.0812    1.2629   -0.6823 H         1 UNK         0.0600 
     21 H21         4.5529   -0.6845    1.8373 H         1 UNK         0.1150 
     22 H22         5.6155   -0.3330   -0.3886 H         1 UNK         0.0600 
     23 H23         5.0254   -1.4991   -1.5793 H         1 UNK         0.0600 
     24 H24         4.4359    0.1688   -1.6060 H         1 UNK         0.0600 
     25 H25         2.1229   -0.5663    2.7482 H         1 UNK         0.0600 
     26 H26         2.6940   -2.2276    2.7813 H         1 UNK         0.0600 
@<TRIPOS>BOND
     1    1    2 1    
     2    1    3 1    
     3    1    4 1    
     4    1   11 1    
     5    2    5 1    
     6    2    6 1    
     7    2    7 1    
     8    3    8 2    
     9    3    9 1    
    10    4    5 1    
    11    4   12 1    
    12    4   13 1    
    13    5   10 1    
    14    5   14 1    
    15    6   15 1    
    16    6   16 1    
    17    6   17 1    
    18    7   18 1    
    19    7   19 1    
    20    7   20 1    
    21    8   10 1    
    22    8   21 1    
    23    9   22 1    
    24    9   23 1    
    25    9   24 1    
    26   10   25 1    
    27   10   26 1    
@<TRIPOS>SUBSTRUCTURE
     1 UNK         1 GROUP             0       ****    0 ROOT    
