@<TRIPOS>MOLECULE
title: molecule 1
17   18    1
SMALL
USER_CHARGES


@<TRIPOS>ATOM
      1 O1          0.1543    0.1787    0.1812 O.2       1 UNK        -0.5300 
      2 S2          0.0032    1.0070   -1.0249 S.o2      1 UNK         0.9145 
      3 O3          0.3790    0.5285   -2.3641 O.2       1 UNK        -0.5300 
      4 C4         -1.6063    1.7351   -1.0669 C.ar      1 UNK         0.1380 
      5 C5          0.7771    2.6077   -0.7366 C.2       1 UNK        -0.1075 
      6 C6         -2.8262    1.0692   -1.2661 C.ar      1 UNK        -0.1150 
      7 C7         -1.5235    3.1178   -0.8696 C.ar      1 UNK         0.0000 
      8 C8         -0.1454    3.5847   -0.6838 C.2       1 UNK        -0.1150 
      9 C9         -4.0043    1.8474   -1.2631 C.ar      1 UNK        -0.1150 
     10 C10        -2.6974    3.8937   -0.8666 C.ar      1 UNK        -0.1150 
     11 C11        -3.9394    3.2479   -1.0649 C.ar      1 UNK        -0.1150 
     12 H12         1.8491    2.6818   -0.6318 H         1 UNK         0.1150 
     13 H13        -2.8595    0.0001   -1.4160 H         1 UNK         0.1150 
     14 H14         0.0774    4.6288   -0.5206 H         1 UNK         0.1150 
     15 H15        -4.9619    1.3708   -1.4132 H         1 UNK         0.1150 
     16 H16        -2.6521    4.9623   -0.7157 H         1 UNK         0.1150 
     17 H17        -4.8494    3.8299   -1.0653 H         1 UNK         0.1150 
@<TRIPOS>BOND
     1    1    2 2    
     2    2    3 2    
     3    2    4 1    
     4    2    5 1    
     5    4    6 ar   
     6    4    7 ar   
     7    5    8 2    
     8    5   12 1    
     9    6    9 ar   
    10    6   13 1    
    11    7   10 ar   
    12    7    8 1    
    13    8   14 1    
    14    9   11 ar   
    15    9   15 1    
    16   10   11 ar   
    17   10   16 1    
    18   11   17 1    
@<TRIPOS>SUBSTRUCTURE
     1 UNK         1 GROUP             0       ****    0 ROOT    
