@<TRIPOS>MOLECULE
title: molecule 1
51   53    1
SMALL
USER_CHARGES


@<TRIPOS>ATOM
      1 C1          4.6153   -0.1021    0.7480 C.3       1 UNK         0.0000 
      2 C2          5.1527   -1.5244    0.7170 C.3       1 UNK        -0.0600 
      3 C3          5.4833   -0.6151    1.8907 C.3       1 UNK        -0.0600 
      4 C4          5.1022    0.9438   -0.2524 C.3       1 UNK        -0.1800 
      5 C5          3.1378    0.1164    1.0206 C.3       1 UNK        -0.1800 
      6 C6          6.1534   -1.9727   -0.2944 C.2       1 UNK        -0.1150 
      7 C7          6.8832   -0.0874    2.0821 C.2       1 UNK         0.5100 
      8 C8          6.8560   -3.1175   -0.2509 C.2       1 UNK         0.1200 
      9 O9          7.7632   -1.0720    2.3456 O.3       1 UNK        -0.3300 
     10 O10         7.1428    1.1163    2.0585 O.2       1 UNK        -0.4300 
     11 C11         7.8660   -3.5481   -1.3032 C.3       1 UNK         0.6000 
     12 Cl12        6.7169   -4.2384    1.0610 Cl        1 UNK        -0.1200 
     13 C13         9.1334   -0.7733    2.5773 C.3       1 UNK         0.2318 
     14 F14         7.2313   -4.0565   -2.3583 F         1 UNK        -0.2000 
     15 F15         8.5823   -2.5040   -1.7191 F         1 UNK        -0.2000 
     16 F16         8.7044   -4.4742   -0.8377 F         1 UNK        -0.2000 
     17 C17         9.9751   -0.9190    1.3193 C.ar      1 UNK        -0.0418 
     18 C18        10.5850   -2.1515    0.9643 C.ar      1 UNK        -0.1150 
     19 C19        10.1472    0.2145    0.5007 C.ar      1 UNK        -0.1150 
     20 C20        11.3965   -2.2270   -0.2022 C.ar      1 UNK         0.0000 
     21 C21        10.3616   -3.3869    1.8313 C.3       1 UNK        -0.0650 
     22 C22        10.9257    0.1354   -0.6645 C.ar      1 UNK        -0.1150 
     23 C23        12.0944   -3.4589   -0.6133 C.ar      1 UNK         0.0000 
     24 C24        11.5470   -1.0770   -1.0071 C.ar      1 UNK        -0.1150 
     25 C25        11.7890   -4.0775   -1.8457 C.ar      1 UNK        -0.1150 
     26 C26        13.0924   -4.0345    0.2046 C.ar      1 UNK        -0.1150 
     27 C27        12.4551   -5.2516   -2.2475 C.ar      1 UNK        -0.1150 
     28 C28        13.7615   -5.2083   -0.1932 C.ar      1 UNK        -0.1150 
     29 C29        13.4420   -5.8189   -1.4201 C.ar      1 UNK        -0.1150 
     30 H30         4.4335   -2.3141    0.9267 H         1 UNK         0.0600 
     31 H31         4.9499   -0.8047    2.8199 H         1 UNK         0.0600 
     32 H32         4.9441    1.9469    0.1447 H         1 UNK         0.0600 
     33 H33         6.1635    0.8375   -0.4749 H         1 UNK         0.0600 
     34 H34         4.5523    0.8538   -1.1896 H         1 UNK         0.0600 
     35 H35         2.9714    1.1086    1.4411 H         1 UNK         0.0600 
     36 H36         2.5631    0.0266    0.0983 H         1 UNK         0.0600 
     37 H37         2.7614   -0.6217    1.7297 H         1 UNK         0.0600 
     38 H38         6.3114   -1.3194   -1.1389 H         1 UNK         0.1150 
     39 H39         9.2581    0.2321    2.9823 H         1 UNK         0.0300 
     40 H40         9.5091   -1.4425    3.3507 H         1 UNK         0.0300 
     41 H41         9.6787    1.1511    0.7660 H         1 UNK         0.1150 
     42 H42        10.4734   -4.3120    1.2670 H         1 UNK         0.0600 
     43 H43        11.0739   -3.4013    2.6562 H         1 UNK         0.0600 
     44 H44         9.3547   -3.4080    2.2463 H         1 UNK         0.0600 
     45 H45        11.0537    1.0060   -1.2907 H         1 UNK         0.1150 
     46 H46        12.1544   -1.1222   -1.8995 H         1 UNK         0.1150 
     47 H47        11.0323   -3.6514   -2.4882 H         1 UNK         0.1150 
     48 H48        13.3472   -3.5721    1.1470 H         1 UNK         0.1150 
     49 H49        12.2083   -5.7163   -3.1907 H         1 UNK         0.1150 
     50 H50        14.5205   -5.6391    0.4431 H         1 UNK         0.1150 
     51 H51        13.9540   -6.7191   -1.7268 H         1 UNK         0.1150 
@<TRIPOS>BOND
     1    1    2 1    
     2    1    3 1    
     3    1    4 1    
     4    1    5 1    
     5    2    6 1    
     6    2    3 1    
     7    2   30 1    
     8    3    7 1    
     9    3   31 1    
    10    4   32 1    
    11    4   33 1    
    12    4   34 1    
    13    5   35 1    
    14    5   36 1    
    15    5   37 1    
    16    6    8 2    
    17    6   38 1    
    18    7    9 1    
    19    7   10 2    
    20    8   11 1    
    21    8   12 1    
    22    9   13 1    
    23   11   14 1    
    24   11   15 1    
    25   11   16 1    
    26   13   17 1    
    27   13   39 1    
    28   13   40 1    
    29   17   18 ar   
    30   17   19 ar   
    31   18   20 ar   
    32   18   21 1    
    33   19   22 ar   
    34   19   41 1    
    35   20   23 1    
    36   20   24 ar   
    37   21   42 1    
    38   21   43 1    
    39   21   44 1    
    40   22   24 ar   
    41   22   45 1    
    42   23   25 ar   
    43   23   26 ar   
    44   24   46 1    
    45   25   27 ar   
    46   25   47 1    
    47   26   28 ar   
    48   26   48 1    
    49   27   29 ar   
    50   27   49 1    
    51   28   29 ar   
    52   28   50 1    
    53   29   51 1    
@<TRIPOS>SUBSTRUCTURE
     1 UNK         1 GROUP             0       ****    0 ROOT    
