@<TRIPOS>MOLECULE
title: molecule 1
22   24    1
SMALL
USER_CHARGES


@<TRIPOS>ATOM
      1 C1         -0.0123   -1.9091    0.0986 C.ar      1 UNK        -0.1150 
      2 C2         -0.0458   -0.4976    0.1128 C.ar      1 UNK        -0.1150 
      3 C3          1.2382   -2.5509    0.0933 C.ar      1 UNK        -0.1150 
      4 C4          1.1547    0.2518    0.1215 C.ar      1 UNK        -0.1150 
      5 C5          2.4137   -1.7993    0.1020 C.ar      1 UNK         0.0000 
      6 C6          1.6417   -4.0089    0.0789 C.3       1 UNK        -0.0050 
      7 C7          2.4146   -0.3899    0.1163 C.ar      1 UNK         0.0000 
      8 C8          3.5882   -2.5525    0.0955 C.ar      1 UNK        -0.1150 
      9 C9          3.1828   -4.0099    0.0804 C.3       1 UNK        -0.0050 
     10 C10         3.6754    0.2501    0.1240 C.ar      1 UNK        -0.1150 
     11 C11         4.8396   -1.9123    0.1032 C.ar      1 UNK        -0.1150 
     12 C12         4.8749   -0.5009    0.1175 C.ar      1 UNK        -0.1150 
     13 H13        -0.9271   -2.4831    0.0919 H         1 UNK         0.1150 
     14 H14        -0.9965    0.0149    0.1171 H         1 UNK         0.1150 
     15 H15         1.1051    1.3307    0.1324 H         1 UNK         0.1150 
     16 H16         1.2428   -4.4974   -0.8105 H         1 UNK         0.0600 
     17 H17         1.2411   -4.5153    0.9576 H         1 UNK         0.0600 
     18 H18         3.5827   -4.4990   -0.8083 H         1 UNK         0.0600 
     19 H19         3.5810   -4.5169    0.9598 H         1 UNK         0.0600 
     20 H20         3.7265    1.3290    0.1349 H         1 UNK         0.1150 
     21 H21         5.7536   -2.4876    0.0983 H         1 UNK         0.1150 
     22 H22         5.8263    0.0103    0.1236 H         1 UNK         0.1150 
@<TRIPOS>BOND
     1    1    2 ar   
     2    1    3 ar   
     3    1   13 1    
     4    2    4 ar   
     5    2   14 1    
     6    3    5 ar   
     7    3    6 1    
     8    4    7 ar   
     9    4   15 1    
    10    5    7 ar   
    11    5    8 ar   
    12    6    9 1    
    13    6   16 1    
    14    6   17 1    
    15    7   10 ar   
    16    8   11 ar   
    17    8    9 1    
    18    9   18 1    
    19    9   19 1    
    20   10   12 ar   
    21   10   20 1    
    22   11   12 ar   
    23   11   21 1    
    24   12   22 1    
@<TRIPOS>SUBSTRUCTURE
     1 UNK         1 GROUP             0       ****    0 ROOT    
