@<TRIPOS>MOLECULE
title: molecule 1
17   17    1
SMALL
USER_CHARGES


@<TRIPOS>ATOM
      1 C1         -0.0545    0.5920    0.1292 C.ar      1 UNK        -0.1150 
      2 C2         -1.3182   -0.0521    0.0966 C.ar      1 UNK         0.1800 
      3 C3          1.1291   -0.1988    0.1127 C.ar      1 UNK         0.0900 
      4 C4          0.0211    2.1150    0.1700 C.3       1 UNK        -0.0650 
      5 C5         -1.3993   -1.4555    0.0191 C.ar      1 UNK        -0.1150 
      6 Cl6        -2.7954    0.8456    0.1563 Cl        1 UNK        -0.1800 
      7 C7          1.0266   -1.6045    0.0233 C.ar      1 UNK        -0.1150 
      8 N8          2.4722    0.3997    0.1913 N.pl3     1 UNK         0.6500 
      9 C9         -0.2298   -2.2321   -0.0248 C.ar      1 UNK        -0.1150 
     10 O10         3.3155    0.0058   -0.6072 O.co2     1 UNK        -0.3700 
     11 O11         2.6881    1.2309    1.0671 O.co2     1 UNK        -0.3700 
     12 H12         0.8940    2.4855   -0.3671 H         1 UNK         0.0600 
     13 H13        -0.8419    2.5845   -0.3001 H         1 UNK         0.0600 
     14 H14         0.0786    2.4611    1.2022 H         1 UNK         0.0600 
     15 H15        -2.3647   -1.9394   -0.0085 H         1 UNK         0.1150 
     16 H16         1.9207   -2.2109    0.0032 H         1 UNK         0.1150 
     17 H17        -0.2961   -3.3084   -0.0867 H         1 UNK         0.1150 
@<TRIPOS>BOND
     1    1    2 ar   
     2    1    3 ar   
     3    1    4 1    
     4    2    5 ar   
     5    2    6 1    
     6    3    7 ar   
     7    3    8 1    
     8    4   12 1    
     9    4   13 1    
    10    4   14 1    
    11    5    9 ar   
    12    5   15 1    
    13    7    9 ar   
    14    7   16 1    
    15    8   10 2    
    16    8   11 1    
    17    9   17 1    
@<TRIPOS>SUBSTRUCTURE
     1 UNK         1 GROUP             0       ****    0 ROOT    
