@<TRIPOS>MOLECULE
title: molecule 1
51   55    1
SMALL
USER_CHARGES


@<TRIPOS>ATOM
      1 C1          8.3528   -4.3981    0.6601 C.ar      1 UNK         0.0850 
      2 C2          8.3289   -5.6702    0.0286 C.ar      1 UNK        -0.1150 
      3 C3          9.5318   -3.6396    0.5538 C.ar      1 UNK        -0.1150 
      4 O4          7.2914   -3.8897    1.3732 O.3       1 UNK        -0.2850 
      5 C5          7.1230   -6.5245    0.1421 C.2       1 UNK         0.5850 
      6 C6          9.4557   -6.1184   -0.7103 C.ar      1 UNK        -0.1150 
      7 C7         10.6339   -4.0791   -0.1558 C.ar      1 UNK         0.0850 
      8 C8          9.8117   -2.2868    1.1099 C.3       1 UNK        -0.0050 
      9 C9          6.0151   -4.4762    1.1328 C.3       1 UNK         0.1700 
     10 O10         6.9840   -7.5918   -0.4573 O.2       1 UNK        -0.4700 
     11 C11         6.0438   -6.0123    1.1131 C.3       1 UNK         0.0550 
     12 C12        10.6183   -5.3224   -0.8089 C.ar      1 UNK        -0.1150 
     13 O13        11.6669   -3.1858   -0.1371 O.3       1 UNK        -0.2850 
     14 C14        11.3103   -2.0936    0.7331 C.3       1 UNK         0.2390 
     15 C15         5.3573   -3.9396   -0.1504 C.3       1 UNK         0.1400 
     16 C16         4.6593   -6.5326    0.7470 C.ar      1 UNK        -0.1150 
     17 C17        11.6775   -0.7438    0.1166 C.2       1 UNK        -0.0690 
     18 O18         4.0074   -4.3857   -0.2578 O.3       1 UNK        -0.2850 
     19 C19         4.2829   -7.8434    1.0971 C.ar      1 UNK        -0.1150 
     20 C20         3.7341   -5.6971    0.0764 C.ar      1 UNK         0.0850 
     21 C21        10.9647    0.3823    0.3017 C.2       1 UNK        -0.2300 
     22 C22        12.9287   -0.7396   -0.7429 C.3       1 UNK        -0.1800 
     23 C23         3.0116   -8.3571    0.7731 C.ar      1 UNK         0.0850 
     24 C24         2.4531   -6.1952   -0.2253 C.ar      1 UNK        -0.1150 
     25 O25         2.7957   -9.6628    1.1666 O.3       1 UNK        -0.2850 
     26 C26         2.0662   -7.5183    0.1141 C.ar      1 UNK         0.0850 
     27 C27         1.8578  -10.4596    0.4591 C.3       1 UNK         0.1100 
     28 O28         0.7983   -7.9997   -0.1455 O.3       1 UNK        -0.2850 
     29 C29        -0.1365   -7.1626   -0.8114 C.3       1 UNK         0.1100 
     30 H30         9.4397   -7.0811   -1.2009 H         1 UNK         0.1150 
     31 H31         9.6427   -2.2493    2.1863 H         1 UNK         0.0600 
     32 H32         9.1416   -1.5837    0.6161 H         1 UNK         0.0600 
     33 H33         5.3929   -4.1637    1.9727 H         1 UNK         0.0300 
     34 H34         6.2997   -6.3769    2.1082 H         1 UNK         0.0600 
     35 H35        11.4776   -5.6636   -1.3669 H         1 UNK         0.1150 
     36 H36        11.9193   -2.2199    1.6292 H         1 UNK         0.0300 
     37 H37         5.9086   -4.2342   -1.0440 H         1 UNK         0.0300 
     38 H38         5.3520   -2.8496   -0.1346 H         1 UNK         0.0300 
     39 H39         4.9901   -8.4780    1.6114 H         1 UNK         0.1150 
     40 H40        11.2645    1.3106   -0.1622 H         1 UNK         0.1150 
     41 H41        10.0783    0.4092    0.9171 H         1 UNK         0.1150 
     42 H42        13.1744    0.2652   -1.0883 H         1 UNK         0.0600 
     43 H43        13.7784   -1.1181   -0.1742 H         1 UNK         0.0600 
     44 H44        12.7932   -1.3713   -1.6211 H         1 UNK         0.0600 
     45 H45         1.7708   -5.5200   -0.7178 H         1 UNK         0.1150 
     46 H46         2.0767  -11.5116    0.6416 H         1 UNK         0.0300 
     47 H47         0.8413  -10.2768    0.8081 H         1 UNK         0.0300 
     48 H48         1.9116  -10.2972   -0.6184 H         1 UNK         0.0300 
     49 H49        -1.0703   -7.7077   -0.9481 H         1 UNK         0.0300 
     50 H50        -0.3607   -6.2695   -0.2266 H         1 UNK         0.0300 
     51 H51         0.2208   -6.8709   -1.7999 H         1 UNK         0.0300 
@<TRIPOS>BOND
     1    1    2 ar   
     2    1    3 ar   
     3    1    4 1    
     4    2    5 1    
     5    2    6 ar   
     6    3    7 ar   
     7    3    8 1    
     8    4    9 1    
     9    5   10 2    
    10    5   11 1    
    11    6   12 ar   
    12    6   30 1    
    13    7   13 1    
    14    7   12 ar   
    15    8   14 1    
    16    8   31 1    
    17    8   32 1    
    18    9   11 1    
    19    9   15 1    
    20    9   33 1    
    21   11   16 1    
    22   11   34 1    
    23   12   35 1    
    24   13   14 1    
    25   14   17 1    
    26   14   36 1    
    27   15   18 1    
    28   15   37 1    
    29   15   38 1    
    30   16   19 ar   
    31   16   20 ar   
    32   17   21 2    
    33   17   22 1    
    34   18   20 1    
    35   19   23 ar   
    36   19   39 1    
    37   20   24 ar   
    38   21   40 1    
    39   21   41 1    
    40   22   42 1    
    41   22   43 1    
    42   22   44 1    
    43   23   25 1    
    44   23   26 ar   
    45   24   26 ar   
    46   24   45 1    
    47   25   27 1    
    48   26   28 1    
    49   27   46 1    
    50   27   47 1    
    51   27   48 1    
    52   28   29 1    
    53   29   49 1    
    54   29   50 1    
    55   29   51 1    
@<TRIPOS>SUBSTRUCTURE
     1 UNK         1 GROUP             0       ****    0 ROOT    
