@<TRIPOS>MOLECULE
title: molecule 1
30   30    1
SMALL
USER_CHARGES


@<TRIPOS>ATOM
      1 C1          2.9810   -0.3645   -0.5658 C.3       1 UNK        -0.1800 
      2 C2          3.9148   -1.4497   -0.0144 C.3       1 UNK         0.1900 
      3 O3          3.3282   -2.7383   -0.1386 O.3       1 UNK        -0.3300 
      4 C4          2.4787   -3.2052    0.8023 C.2       1 UNK         0.6250 
      5 O5          2.1391   -2.5696    1.8020 O.2       1 UNK        -0.4300 
      6 C6          1.9268   -4.5499    0.4601 C.ar      1 UNK        -0.1150 
      7 C7          0.5396   -4.7223    0.6785 C.ar      1 UNK        -0.1150 
      8 C8          2.6816   -5.6337   -0.0923 C.ar      1 UNK        -0.1150 
      9 C9         -0.1101   -5.9166    0.3203 C.ar      1 UNK        -0.1150 
     10 C10         2.0056   -6.8184   -0.4682 C.ar      1 UNK        -0.1150 
     11 C11         4.1628   -5.6406   -0.2799 C.2       1 UNK         0.6250 
     12 C12         0.6218   -6.9616   -0.2652 C.ar      1 UNK        -0.1150 
     13 O13         4.7168   -6.1222   -1.2698 O.2       1 UNK        -0.4300 
     14 O14         4.8221   -5.1257    0.7812 O.3       1 UNK        -0.3300 
     15 C15         6.2429   -5.0881    0.8064 C.3       1 UNK         0.1900 
     16 C16         6.7684   -3.8064    0.1488 C.3       1 UNK        -0.1800 
     17 H17         3.4519    0.6167   -0.5057 H         1 UNK         0.0600 
     18 H18         2.7358   -0.5535   -1.6111 H         1 UNK         0.0600 
     19 H19         2.0476   -0.3188   -0.0043 H         1 UNK         0.0600 
     20 H20         4.8453   -1.4465   -0.5820 H         1 UNK         0.0300 
     21 H21         4.1825   -1.2419    1.0227 H         1 UNK         0.0300 
     22 H22        -0.0498   -3.9221    1.1036 H         1 UNK         0.1150 
     23 H23        -1.1722   -6.0252    0.4842 H         1 UNK         0.1150 
     24 H24         2.5526   -7.6464   -0.8969 H         1 UNK         0.1150 
     25 H25         0.1252   -7.8781   -0.5481 H         1 UNK         0.1150 
     26 H26         6.5642   -5.1189    1.8475 H         1 UNK         0.0300 
     27 H27         6.6669   -5.9710    0.3257 H         1 UNK         0.0300 
     28 H28         7.8576   -3.7772    0.1756 H         1 UNK         0.0600 
     29 H29         6.4590   -3.7382   -0.8944 H         1 UNK         0.0600 
     30 H30         6.3996   -2.9226    0.6691 H         1 UNK         0.0600 
@<TRIPOS>BOND
     1    1    2 1    
     2    1   17 1    
     3    1   18 1    
     4    1   19 1    
     5    2    3 1    
     6    2   20 1    
     7    2   21 1    
     8    3    4 1    
     9    4    5 2    
    10    4    6 1    
    11    6    7 ar   
    12    6    8 ar   
    13    7    9 ar   
    14    7   22 1    
    15    8   10 ar   
    16    8   11 1    
    17    9   12 ar   
    18    9   23 1    
    19   10   12 ar   
    20   10   24 1    
    21   11   13 2    
    22   11   14 1    
    23   12   25 1    
    24   14   15 1    
    25   15   16 1    
    26   15   26 1    
    27   15   27 1    
    28   16   28 1    
    29   16   29 1    
    30   16   30 1    
@<TRIPOS>SUBSTRUCTURE
     1 UNK         1 GROUP             0       ****    0 ROOT    
