@<TRIPOS>MOLECULE
title: molecule 1
24   26    1
SMALL
USER_CHARGES


@<TRIPOS>ATOM
      1 C1          2.3340   -2.5122    0.1058 C.ar      1 UNK         0.0000 
      2 C2          3.5706   -1.8010    0.1060 C.ar      1 UNK         0.0000 
      3 C3          2.3494   -3.9352    0.1017 C.ar      1 UNK         0.0000 
      4 C4          1.0745   -1.8584    0.1095 C.ar      1 UNK        -0.1150 
      5 C5          4.7929   -2.5298    0.1021 C.ar      1 UNK         0.0000 
      6 C6          3.6387   -0.3835    0.1099 C.ar      1 UNK        -0.1150 
      7 C7          3.5695   -4.6371    0.0979 C.ar      1 UNK        -0.1150 
      8 C8          1.1442   -4.6683    0.1014 C.ar      1 UNK        -0.1150 
      9 C9         -0.1251   -2.5957    0.1092 C.ar      1 UNK        -0.1150 
     10 C10         6.0325   -1.8566    0.1021 C.ar      1 UNK        -0.1150 
     11 C11         4.7860   -3.9374    0.0981 C.ar      1 UNK        -0.1150 
     12 C12         4.8791    0.2827    0.1099 C.ar      1 UNK        -0.1150 
     13 C13        -0.0923   -4.0003    0.1052 C.ar      1 UNK        -0.1150 
     14 C14         6.0768   -0.4520    0.1061 C.ar      1 UNK        -0.1150 
     15 H15         0.9861   -0.7847    0.1127 H         1 UNK         0.1150 
     16 H16         2.7550    0.2327    0.1130 H         1 UNK         0.1150 
     17 H17         3.5788   -5.7174    0.0948 H         1 UNK         0.1150 
     18 H18         1.1625   -5.7486    0.0983 H         1 UNK         0.1150 
     19 H19        -1.0740   -2.0798    0.1121 H         1 UNK         0.1150 
     20 H20         6.9571   -2.4157    0.0991 H         1 UNK         0.1150 
     21 H21         5.7152   -4.4886    0.0951 H         1 UNK         0.1150 
     22 H22         4.9103    1.3623    0.1130 H         1 UNK         0.1150 
     23 H23        -1.0134   -4.5643    0.1050 H         1 UNK         0.1150 
     24 H24         7.0275    0.0606    0.1061 H         1 UNK         0.1150 
@<TRIPOS>BOND
     1    1    2 ar   
     2    1    3 ar   
     3    1    4 ar   
     4    2    5 ar   
     5    2    6 ar   
     6    3    7 ar   
     7    3    8 ar   
     8    4    9 ar   
     9    4   15 1    
    10    5   10 ar   
    11    5   11 ar   
    12    6   12 ar   
    13    6   16 1    
    14    7   11 ar   
    15    7   17 1    
    16    8   13 ar   
    17    8   18 1    
    18    9   13 ar   
    19    9   19 1    
    20   10   14 ar   
    21   10   20 1    
    22   11   21 1    
    23   12   14 ar   
    24   12   22 1    
    25   13   23 1    
    26   14   24 1    
@<TRIPOS>SUBSTRUCTURE
     1 UNK         1 GROUP             0       ****    0 ROOT    
