@<TRIPOS>MOLECULE
title: molecule 1
43   44    1
SMALL
USER_CHARGES


@<TRIPOS>ATOM
      1 C1          5.3832   -0.9384   -0.1128 C.ar      1 UNK        -0.1150 
      2 C2          4.2987   -1.8674   -0.2085 C.ar      1 UNK        -0.1150 
      3 C3          5.1322    0.3640    0.3787 C.ar      1 UNK        -0.1150 
      4 C4          6.8013   -1.2455   -0.4669 C.2       1 UNK         0.6250 
      5 C5          3.0165   -1.4717    0.2444 C.ar      1 UNK        -0.1150 
      6 C6          4.4212   -3.2267   -0.8177 C.2       1 UNK         0.6250 
      7 C7          3.8486    0.7426    0.8096 C.ar      1 UNK        -0.1150 
      8 O8          7.1861   -2.4595   -0.0332 O.3       1 UNK        -0.3300 
      9 O9          7.5495   -0.4475   -1.0342 O.2       1 UNK        -0.4300 
     10 C10         2.7918   -0.1798    0.7518 C.ar      1 UNK        -0.1150 
     11 O11         3.7273   -4.1585   -0.1291 O.3       1 UNK        -0.3300 
     12 O12         5.0867   -3.4689   -1.8266 O.2       1 UNK        -0.4300 
     13 C13         8.5062   -2.9194   -0.2686 C.3       1 UNK         0.2318 
     14 C14         3.7240   -5.5167   -0.5486 C.3       1 UNK         0.1900 
     15 C15         8.7220   -4.3251    0.2588 C.ar      1 UNK        -0.0418 
     16 C16         4.9844   -6.2585   -0.0728 C.3       1 UNK        -0.1200 
     17 C17         9.5101   -5.2363   -0.4745 C.ar      1 UNK        -0.1150 
     18 C18         8.1678   -4.7207    1.4956 C.ar      1 UNK        -0.1150 
     19 C19         4.9561   -7.7438   -0.4577 C.3       1 UNK        -0.1200 
     20 C20         9.7354   -6.5359    0.0200 C.ar      1 UNK        -0.1150 
     21 C21         8.3914   -6.0209    1.9886 C.ar      1 UNK        -0.1150 
     22 C22         6.2229   -8.4908   -0.0288 C.3       1 UNK        -0.1800 
     23 C23         9.1770   -6.9280    1.2520 C.ar      1 UNK        -0.1150 
     24 H24         5.9351    1.0840    0.4520 H         1 UNK         0.1150 
     25 H25         2.1780   -2.1508    0.1826 H         1 UNK         0.1150 
     26 H26         3.6778    1.7382    1.1919 H         1 UNK         0.1150 
     27 H27         1.8049    0.1069    1.0840 H         1 UNK         0.1150 
     28 H28         8.7120   -2.9010   -1.3399 H         1 UNK         0.0300 
     29 H29         9.2204   -2.2507    0.2138 H         1 UNK         0.0300 
     30 H30         2.8400   -5.9941   -0.1254 H         1 UNK         0.0300 
     31 H31         3.6222   -5.5823   -1.6329 H         1 UNK         0.0300 
     32 H32         5.8731   -5.7919   -0.4995 H         1 UNK         0.0600 
     33 H33         5.0762   -6.1632    1.0098 H         1 UNK         0.0600 
     34 H34         9.9453   -4.9411   -1.4181 H         1 UNK         0.1150 
     35 H35         7.5693   -4.0292    2.0706 H         1 UNK         0.1150 
     36 H36         4.0862   -8.2212   -0.0053 H         1 UNK         0.0600 
     37 H37         4.8339   -7.8392   -1.5373 H         1 UNK         0.0600 
     38 H38        10.3377   -7.2317   -0.5453 H         1 UNK         0.1150 
     39 H39         7.9622   -6.3214    2.9331 H         1 UNK         0.1150 
     40 H40         6.1621   -9.5456   -0.2970 H         1 UNK         0.0600 
     41 H41         7.1052   -8.0755   -0.5159 H         1 UNK         0.0600 
     42 H42         6.3721   -8.4290    1.0495 H         1 UNK         0.0600 
     43 H43         9.3488   -7.9249    1.6303 H         1 UNK         0.1150 
@<TRIPOS>BOND
     1    1    2 ar   
     2    1    3 ar   
     3    1    4 1    
     4    2    5 ar   
     5    2    6 1    
     6    3    7 ar   
     7    3   24 1    
     8    4    8 1    
     9    4    9 2    
    10    5   10 ar   
    11    5   25 1    
    12    6   11 1    
    13    6   12 2    
    14    7   10 ar   
    15    7   26 1    
    16    8   13 1    
    17   10   27 1    
    18   11   14 1    
    19   13   15 1    
    20   13   28 1    
    21   13   29 1    
    22   14   16 1    
    23   14   30 1    
    24   14   31 1    
    25   15   17 ar   
    26   15   18 ar   
    27   16   19 1    
    28   16   32 1    
    29   16   33 1    
    30   17   20 ar   
    31   17   34 1    
    32   18   21 ar   
    33   18   35 1    
    34   19   22 1    
    35   19   36 1    
    36   19   37 1    
    37   20   23 ar   
    38   20   38 1    
    39   21   23 ar   
    40   21   39 1    
    41   22   40 1    
    42   22   41 1    
    43   22   42 1    
    44   23   43 1    
@<TRIPOS>SUBSTRUCTURE
     1 UNK         1 GROUP             0       ****    0 ROOT    
