@<TRIPOS>MOLECULE
title: molecule 1
25   26    1
SMALL
USER_CHARGES


@<TRIPOS>ATOM
      1 O1          2.5474    0.1380    0.7214 O.2       1 UNK        -0.1617 
      2 N2          3.5930   -0.4316    0.4832 N.2       1 UNK         0.1617 
      3 N3          3.5504   -1.7752    0.2770 N.pl3     1 UNK        -0.4200 
      4 C4          4.7568   -2.4831    0.0926 C.ar      1 UNK         0.2100 
      5 C5          2.3383   -2.4942    0.2543 C.ar      1 UNK         0.2100 
      6 C6          5.9496   -2.0302    0.7060 C.ar      1 UNK        -0.1150 
      7 C7          4.8113   -3.6473   -0.7133 C.ar      1 UNK        -0.1150 
      8 C8          1.3477   -2.1994   -0.7091 C.ar      1 UNK        -0.1150 
      9 C9          2.1055   -3.5262    1.1909 C.ar      1 UNK        -0.1150 
     10 C10         7.1612   -2.7255    0.5264 C.ar      1 UNK        -0.1150 
     11 C11         6.0229   -4.3423   -0.8933 C.ar      1 UNK        -0.1150 
     12 C12         0.1406   -2.9248   -0.7341 C.ar      1 UNK        -0.1150 
     13 C13         0.8985   -4.2517    1.1654 C.ar      1 UNK        -0.1150 
     14 C14         7.1988   -3.8825   -0.2729 C.ar      1 UNK        -0.1150 
     15 C15        -0.0843   -3.9510    0.2031 C.ar      1 UNK        -0.1150 
     16 H16         5.9463   -1.1479    1.3292 H         1 UNK         0.1150 
     17 H17         3.9256   -4.0172   -1.2089 H         1 UNK         0.1150 
     18 H18         1.5136   -1.4155   -1.4338 H         1 UNK         0.1150 
     19 H19         2.8537   -3.7635    1.9333 H         1 UNK         0.1150 
     20 H20         8.0626   -2.3701    1.0036 H         1 UNK         0.1150 
     21 H21         6.0497   -5.2282   -1.5105 H         1 UNK         0.1150 
     22 H22        -0.6123   -2.6938   -1.4732 H         1 UNK         0.1150 
     23 H23         0.7269   -5.0388    1.8848 H         1 UNK         0.1150 
     24 H24         8.1281   -4.4155   -0.4111 H         1 UNK         0.1150 
     25 H25        -1.0099   -4.5074    0.1838 H         1 UNK         0.1150 
@<TRIPOS>BOND
     1    1    2 2    
     2    2    3 1    
     3    3    4 1    
     4    3    5 1    
     5    4    6 ar   
     6    4    7 ar   
     7    5    8 ar   
     8    5    9 ar   
     9    6   10 ar   
    10    6   16 1    
    11    7   11 ar   
    12    7   17 1    
    13    8   12 ar   
    14    8   18 1    
    15    9   13 ar   
    16    9   19 1    
    17   10   14 ar   
    18   10   20 1    
    19   11   14 ar   
    20   11   21 1    
    21   12   15 ar   
    22   12   22 1    
    23   13   15 ar   
    24   13   23 1    
    25   14   24 1    
    26   15   25 1    
@<TRIPOS>SUBSTRUCTURE
     1 UNK         1 GROUP             0       ****    0 ROOT    
