@<TRIPOS>MOLECULE
title: molecule 1
13   13    1
SMALL
USER_CHARGES


@<TRIPOS>ATOM
      1 O1         -0.0242   -2.1659    0.1083 O.3       1 UNK        -0.5850 
      2 C2          1.3429   -2.1710    0.1025 C.ar      1 UNK         0.1500 
      3 C3          2.0459   -3.3951    0.0951 C.ar      1 UNK         0.1800 
      4 C4          2.0484   -0.9490    0.1039 C.ar      1 UNK         0.1800 
      5 C5          3.4584   -3.3967    0.0891 C.ar      1 UNK         0.1800 
      6 Cl6         1.1724   -4.8898    0.0934 Cl        1 UNK        -0.1800 
      7 C7          3.4607   -0.9490    0.0979 C.ar      1 UNK         0.1800 
      8 Cl8         1.1735    0.5447    0.1131 Cl        1 UNK        -0.1800 
      9 C9          4.1657   -2.1735    0.0905 C.ar      1 UNK         0.1800 
     10 Cl10        4.3222   -4.8971    0.0799 Cl        1 UNK        -0.1800 
     11 Cl11        4.3261    0.5503    0.0997 Cl        1 UNK        -0.1800 
     12 Cl12        5.8970   -2.1749    0.0831 Cl        1 UNK        -0.1800 
     13 H13        -0.3893   -1.2936    0.1131 H         1 UNK         0.4350 
@<TRIPOS>BOND
     1    1    2 1    
     2    1   13 1    
     3    2    3 ar   
     4    2    4 ar   
     5    3    5 ar   
     6    3    6 1    
     7    4    7 ar   
     8    4    8 1    
     9    5    9 ar   
    10    5   10 1    
    11    7    9 ar   
    12    7   11 1    
    13    9   12 1    
@<TRIPOS>SUBSTRUCTURE
     1 UNK         1 GROUP             0       ****    0 ROOT    
