@<TRIPOS>MOLECULE
title: molecule 1
23   24    1
SMALL
USER_CHARGES


@<TRIPOS>ATOM
      1 N1         -1.4203    1.1422    0.1298 N.ar      1 UNK        -0.7311 
      2 C2         -2.3693    0.1823    0.0945 C.ar      1 UNK         0.3705 
      3 C3         -0.1174    0.7780    0.1270 C.ar      1 UNK         0.7341 
      4 C4         -2.0715   -1.1940    0.0521 C.ar      1 UNK        -0.4849 
      5 C5         -3.8039    0.6670    0.0972 C.3       1 UNK        -0.0650 
      6 C6          0.2761   -0.5881    0.0865 C.ar      1 UNK        -0.1736 
      7 C7          0.8927    1.7618    0.1652 C.ar      1 UNK        -0.4407 
      8 C8         -0.7202   -1.5849    0.0486 C.ar      1 UNK         0.0486 
      9 C9          1.6396   -0.9478    0.0841 C.ar      1 UNK        -0.1673 
     10 C10         2.2553    1.4065    0.1629 C.ar      1 UNK        -0.0433 
     11 C11         2.6328    0.0502    0.1207 C.ar      1 UNK        -0.1656 
     12 C12         4.0981   -0.3337    0.1213 C.3       1 UNK        -0.0650 
     13 H13        -2.8574   -1.9345    0.0224 H         1 UNK         0.1970 
     14 H14        -4.4959   -0.1513    0.2978 H         1 UNK         0.0600 
     15 H15        -3.9503    1.4288    0.8636 H         1 UNK         0.0600 
     16 H16        -4.0568    1.0996   -0.8709 H         1 UNK         0.0600 
     17 H17         0.6174    2.8057    0.1971 H         1 UNK         0.2022 
     18 H18        -0.4570   -2.6322    0.0169 H         1 UNK         0.1325 
     19 H19         1.9251   -1.9895    0.0546 H         1 UNK         0.1528 
     20 H20         3.0093    2.1795    0.1942 H         1 UNK         0.1388 
     21 H21         4.7057    0.4466   -0.3381 H         1 UNK         0.0600 
     22 H22         4.4467   -0.4841    1.1432 H         1 UNK         0.0600 
     23 H23         4.2580   -1.2571   -0.4362 H         1 UNK         0.0600 
@<TRIPOS>BOND
     1    1    2 ar   
     2    1    3 ar   
     3    2    4 ar   
     4    2    5 1    
     5    3    6 ar   
     6    3    7 ar   
     7    4    8 ar   
     8    4   13 1    
     9    5   14 1    
    10    5   15 1    
    11    5   16 1    
    12    6    8 ar   
    13    6    9 ar   
    14    7   10 ar   
    15    7   17 1    
    16    8   18 1    
    17    9   11 ar   
    18    9   19 1    
    19   10   11 ar   
    20   10   20 1    
    21   11   12 1    
    22   12   21 1    
    23   12   22 1    
    24   12   23 1    
@<TRIPOS>SUBSTRUCTURE
     1 UNK         1 GROUP             0       ****    0 ROOT    
