@<TRIPOS>MOLECULE
title: molecule 1
13   13    1
SMALL
USER_CHARGES


@<TRIPOS>ATOM
      1 O1          5.5350   -2.1946    0.1036 O.3       1 UNK        -0.5850 
      2 C2          4.1684   -2.1823    0.1002 C.ar      1 UNK         0.1500 
      3 C3          3.4673   -0.9557    0.0930 C.ar      1 UNK         0.1800 
      4 C4          3.4525   -3.3997    0.1039 C.ar      1 UNK         0.1800 
      5 C5          2.0585   -0.9508    0.0895 C.ar      1 UNK        -0.1150 
      6 Cl6         4.3181    0.5483    0.0883 Cl        1 UNK        -0.1800 
      7 C7          2.0438   -3.3890    0.1005 C.ar      1 UNK        -0.1150 
      8 Cl8         4.2900   -4.9110    0.1128 Cl        1 UNK        -0.1800 
      9 C9          1.3468   -2.1657    0.0933 C.ar      1 UNK         0.1800 
     10 Cl10       -0.3783   -2.1555    0.0890 Cl        1 UNK        -0.1800 
     11 H11         5.8925   -3.0698    0.1084 H         1 UNK         0.4350 
     12 H12         1.5229   -0.0127    0.0840 H         1 UNK         0.1150 
     13 H13         1.4973   -4.3208    0.1033 H         1 UNK         0.1150 
@<TRIPOS>BOND
     1    1    2 1    
     2    1   11 1    
     3    2    3 ar   
     4    2    4 ar   
     5    3    5 ar   
     6    3    6 1    
     7    4    7 ar   
     8    4    8 1    
     9    5    9 ar   
    10    5   12 1    
    11    7    9 ar   
    12    7   13 1    
    13    9   10 1    
@<TRIPOS>SUBSTRUCTURE
     1 UNK         1 GROUP             0       ****    0 ROOT    
