@<TRIPOS>MOLECULE
title: molecule 1
14   14    1
SMALL
USER_CHARGES


@<TRIPOS>ATOM
      1 Cl1         2.8532    0.5690    0.3253 Cl        1 UNK        -0.1800 
      2 C2          2.0825   -0.9730    0.1806 C.ar      1 UNK         0.1800 
      3 C3          2.8242   -2.1803    0.0922 C.ar      1 UNK         0.0900 
      4 C4          0.6733   -1.0129    0.1808 C.ar      1 UNK        -0.1150 
      5 C5          2.1300   -3.4094    0.0223 C.ar      1 UNK        -0.1150 
      6 N6          4.2962   -2.1924    0.0781 N.pl3     1 UNK         0.6500 
      7 C7         -0.0067   -2.2422    0.1004 C.ar      1 UNK        -0.1150 
      8 C8          0.7228   -3.4420    0.0240 C.ar      1 UNK        -0.1150 
      9 O9          4.8805   -1.4018   -0.6548 O.co2     1 UNK        -0.3700 
     10 O10         4.8616   -3.0249    0.7792 O.co2     1 UNK        -0.3700 
     11 H11         0.1091   -0.0943    0.2498 H         1 UNK         0.1150 
     12 H12         2.6796   -4.3374   -0.0411 H         1 UNK         0.1150 
     13 H13        -1.0867   -2.2644    0.1026 H         1 UNK         0.1150 
     14 H14         0.2037   -4.3876   -0.0343 H         1 UNK         0.1150 
@<TRIPOS>BOND
     1    1    2 1    
     2    2    3 ar   
     3    2    4 ar   
     4    3    5 ar   
     5    3    6 1    
     6    4    7 ar   
     7    4   11 1    
     8    5    8 ar   
     9    5   12 1    
    10    6    9 2    
    11    6   10 1    
    12    7    8 ar   
    13    7   13 1    
    14    8   14 1    
@<TRIPOS>SUBSTRUCTURE
     1 UNK         1 GROUP             0       ****    0 ROOT    
