@<TRIPOS>MOLECULE
title: molecule 1
29   29    1
SMALL
USER_CHARGES


@<TRIPOS>ATOM
      1 O1          2.0708   -1.1885    0.1384 O.3       1 UNK        -0.5850 
      2 C2          2.8478   -2.3127    0.1026 C.ar      1 UNK         0.1500 
      3 C3          4.2587   -2.2008    0.2084 C.ar      1 UNK         0.0900 
      4 C4          2.2455   -3.5876   -0.0628 C.ar      1 UNK        -0.1150 
      5 C5          5.0542   -3.3636    0.1304 C.ar      1 UNK        -0.1150 
      6 N6          4.9251   -0.8981    0.3914 N.pl3     1 UNK         0.6500 
      7 C7          3.0668   -4.7343   -0.1286 C.ar      1 UNK        -0.1150 
      8 C8          0.7290   -3.7771   -0.1783 C.3       1 UNK         0.0550 
      9 C9          4.4721   -4.6380   -0.0366 C.ar      1 UNK         0.0900 
     10 O10         4.4395   -0.0953    1.1815 O.co2     1 UNK        -0.3700 
     11 O11         5.9587   -0.6975   -0.2381 O.co2     1 UNK        -0.3700 
     12 C12        -0.0164   -3.3368    1.1017 C.3       1 UNK        -0.1200 
     13 C13         0.1633   -3.1479   -1.4656 C.3       1 UNK        -0.1800 
     14 N14         5.3168   -5.8471   -0.1114 N.pl3     1 UNK         0.6500 
     15 C15        -1.4490   -3.8791    1.2019 C.3       1 UNK        -0.1800 
     16 O16         6.5330   -5.7124   -0.0242 O.co2     1 UNK        -0.3700 
     17 O17         4.7657   -6.9334   -0.2575 O.co2     1 UNK        -0.3700 
     18 H18         1.1485   -1.3752    0.0529 H         1 UNK         0.4350 
     19 H19         6.1277   -3.2687    0.2086 H         1 UNK         0.1150 
     20 H20         2.6085   -5.7042   -0.2556 H         1 UNK         0.1150 
     21 H21         0.5582   -4.8505   -0.2721 H         1 UNK         0.0600 
     22 H22         0.5336   -3.7034    1.9695 H         1 UNK         0.0600 
     23 H23        -0.0348   -2.2515    1.1931 H         1 UNK         0.0600 
     24 H24        -0.8883   -3.3992   -1.6014 H         1 UNK         0.0600 
     25 H25         0.2391   -2.0615   -1.4680 H         1 UNK         0.0600 
     26 H26         0.6955   -3.5178   -2.3425 H         1 UNK         0.0600 
     27 H27        -1.9017   -3.5962    2.1524 H         1 UNK         0.0600 
     28 H28        -2.0845   -3.4860    0.4087 H         1 UNK         0.0600 
     29 H29        -1.4659   -4.9675    1.1397 H         1 UNK         0.0600 
@<TRIPOS>BOND
     1    1    2 1    
     2    1   18 1    
     3    2    3 ar   
     4    2    4 ar   
     5    3    5 ar   
     6    3    6 1    
     7    4    7 ar   
     8    4    8 1    
     9    5    9 ar   
    10    5   19 1    
    11    6   10 2    
    12    6   11 1    
    13    7    9 ar   
    14    7   20 1    
    15    8   12 1    
    16    8   13 1    
    17    8   21 1    
    18    9   14 1    
    19   12   15 1    
    20   12   22 1    
    21   12   23 1    
    22   13   24 1    
    23   13   25 1    
    24   13   26 1    
    25   14   16 2    
    26   14   17 1    
    27   15   27 1    
    28   15   28 1    
    29   15   29 1    
@<TRIPOS>SUBSTRUCTURE
     1 UNK         1 GROUP             0       ****    0 ROOT    
