@<TRIPOS>MOLECULE
title: molecule 1
19   19    1
SMALL
USER_CHARGES


@<TRIPOS>ATOM
      1 N1          4.9455   -5.8171    0.1472 N.pl3     1 UNK         0.6500 
      2 O2          6.0626   -5.7759    0.6522 O.co2     1 UNK        -0.3700 
      3 O3          4.4623   -6.8344   -0.3395 O.co2     1 UNK        -0.3700 
      4 C4          4.1573   -4.5660    0.1142 C.ar      1 UNK         0.0900 
      5 C5          4.8443   -3.3316    0.0761 C.ar      1 UNK        -0.1150 
      6 C6          2.7353   -4.5659    0.1323 C.ar      1 UNK         0.1500 
      7 C7          4.1508   -2.1027    0.0538 C.ar      1 UNK         0.0900 
      8 C8          2.0254   -3.3371    0.0995 C.ar      1 UNK         0.0900 
      9 O9          2.0414   -5.7433    0.2181 O.3       1 UNK        -0.5850 
     10 C10         2.7404   -2.1213    0.0668 C.ar      1 UNK        -0.1150 
     11 N11         4.8864   -0.8228    0.0152 N.pl3     1 UNK         0.6500 
     12 N12         0.5517   -3.2897    0.1066 N.pl3     1 UNK         0.6500 
     13 O13         6.1126   -0.8573    0.0045 O.co2     1 UNK        -0.3700 
     14 O14         4.2389    0.2189   -0.0047 O.co2     1 UNK        -0.3700 
     15 O15         0.0162   -2.4390    0.8096 O.co2     1 UNK        -0.3700 
     16 O16        -0.0640   -4.0727   -0.6090 O.co2     1 UNK        -0.3700 
     17 H17         5.9246   -3.3314    0.0616 H         1 UNK         0.1150 
     18 H18         2.5950   -6.5089    0.1576 H         1 UNK         0.4350 
     19 H19         2.1899   -1.1917    0.0449 H         1 UNK         0.1150 
@<TRIPOS>BOND
     1    1    2 2    
     2    1    3 1    
     3    1    4 1    
     4    4    5 ar   
     5    4    6 ar   
     6    5    7 ar   
     7    5   17 1    
     8    6    8 ar   
     9    6    9 1    
    10    7   10 ar   
    11    7   11 1    
    12    8   10 ar   
    13    8   12 1    
    14    9   18 1    
    15   10   19 1    
    16   11   13 2    
    17   11   14 1    
    18   12   15 2    
    19   12   16 1    
@<TRIPOS>SUBSTRUCTURE
     1 UNK         1 GROUP             0       ****    0 ROOT    
