@<TRIPOS>MOLECULE
title: molecule 1
14   14    1
SMALL
USER_CHARGES


@<TRIPOS>ATOM
      1 C1         -0.7071    1.0519    0.1274 C.ar      1 UNK         0.1800 
      2 C2         -0.3671   -0.3260    0.0981 C.ar      1 UNK         0.0900 
      3 C3          0.3110    2.0268    0.1134 C.ar      1 UNK        -0.1150 
      4 Cl4        -2.3486    1.5903    0.2156 Cl        1 UNK        -0.1800 
      5 C5          0.9961   -0.6972    0.0719 C.ar      1 UNK        -0.1150 
      6 N6         -1.3917   -1.3827    0.1011 N.pl3     1 UNK         0.6500 
      7 C7          1.6649    1.6453    0.0771 C.ar      1 UNK        -0.1150 
      8 C8          2.0078    0.2813    0.0592 C.ar      1 UNK         0.1800 
      9 O9         -2.3478   -1.2721   -0.6585 O.co2     1 UNK        -0.3700 
     10 O10        -1.2120   -2.3421    0.8437 O.co2     1 UNK        -0.3700 
     11 Cl11        3.6663   -0.1920    0.0202 Cl        1 UNK        -0.1800 
     12 H12         0.0524    3.0754    0.1374 H         1 UNK         0.1150 
     13 H13         1.2700   -1.7423    0.0536 H         1 UNK         0.1150 
     14 H14         2.4383    2.3994    0.0680 H         1 UNK         0.1150 
@<TRIPOS>BOND
     1    1    2 ar   
     2    1    3 ar   
     3    1    4 1    
     4    2    5 ar   
     5    2    6 1    
     6    3    7 ar   
     7    3   12 1    
     8    5    8 ar   
     9    5   13 1    
    10    6    9 2    
    11    6   10 1    
    12    7    8 ar   
    13    7   14 1    
    14    8   11 1    
@<TRIPOS>SUBSTRUCTURE
     1 UNK         1 GROUP             0       ****    0 ROOT    
