@<TRIPOS>MOLECULE
title: molecule 1
18   18    1
SMALL
USER_CHARGES


@<TRIPOS>ATOM
      1 C1          1.8844   -0.7893    0.0826 C.ar      1 UNK         0.1800 
      2 C2          2.8054   -1.8633    0.0795 C.ar      1 UNK         0.0850 
      3 N3          2.3431    0.5279    0.0669 N.pl3     1 UNK        -0.9000 
      4 C4          0.4966   -1.0350    0.1018 C.ar      1 UNK        -0.1150 
      5 O5          4.1509   -1.5532    0.0614 O.3       1 UNK        -0.2850 
      6 C6          2.3043   -3.1905    0.0956 C.ar      1 UNK        -0.1150 
      7 C7          0.0124   -2.3556    0.1177 C.ar      1 UNK        -0.1150 
      8 C8          5.0874   -2.6207    0.0568 C.3       1 UNK         0.1100 
      9 C9          0.9171   -3.4324    0.1146 C.ar      1 UNK        -0.1150 
     10 H10         1.7102    1.3075    0.1719 H         1 UNK         0.3600 
     11 H11         3.3306    0.7269    0.1424 H         1 UNK         0.3600 
     12 H12        -0.2025   -0.2113    0.1039 H         1 UNK         0.1150 
     13 H13         2.9647   -4.0441    0.0940 H         1 UNK         0.1150 
     14 H14        -1.0514   -2.5419    0.1322 H         1 UNK         0.1150 
     15 H15         6.0977   -2.2121    0.0413 H         1 UNK         0.0300 
     16 H16         4.9951   -3.2363    0.9525 H         1 UNK         0.0300 
     17 H17         4.9727   -3.2483   -0.8280 H         1 UNK         0.0300 
     18 H18         0.5470   -4.4470    0.1268 H         1 UNK         0.1150 
@<TRIPOS>BOND
     1    1    2 ar   
     2    1    3 1    
     3    1    4 ar   
     4    2    5 1    
     5    2    6 ar   
     6    3   10 1    
     7    3   11 1    
     8    4    7 ar   
     9    4   12 1    
    10    5    8 1    
    11    6    9 ar   
    12    6   13 1    
    13    7    9 ar   
    14    7   14 1    
    15    8   15 1    
    16    8   16 1    
    17    8   17 1    
    18    9   18 1    
@<TRIPOS>SUBSTRUCTURE
     1 UNK         1 GROUP             0       ****    0 ROOT    
