@<TRIPOS>MOLECULE
title: molecule 1
18   19    1
SMALL
USER_CHARGES


@<TRIPOS>ATOM
      1 C1          0.0525   -1.4741    0.1118 C.ar      1 UNK        -0.1150 
      2 C2          0.0463   -2.8810    0.1088 C.ar      1 UNK        -0.1150 
      3 C3          1.2732   -0.7719    0.1057 C.ar      1 UNK        -0.1150 
      4 C4          1.2624   -3.5889    0.0998 C.ar      1 UNK        -0.1150 
      5 C5          2.5027   -1.4714    0.0967 C.ar      1 UNK         0.0000 
      6 C6          2.4886   -2.8918    0.0937 C.ar      1 UNK         0.0000 
      7 C7          3.7449   -0.7885    0.0904 C.ar      1 UNK         0.1800 
      8 C8          3.7005   -3.6122    0.0847 C.ar      1 UNK        -0.1150 
      9 C9          4.9492   -1.5202    0.0814 C.ar      1 UNK        -0.1150 
     10 Cl10        3.8329    0.9393    0.0936 Cl        1 UNK        -0.1800 
     11 C11         4.9290   -2.9270    0.0786 C.ar      1 UNK        -0.1150 
     12 H12        -0.8812   -0.9312    0.1187 H         1 UNK         0.1150 
     13 H13        -0.8912   -3.4173    0.1135 H         1 UNK         0.1150 
     14 H14         1.2454    0.3073    0.1082 H         1 UNK         0.1150 
     15 H15         1.2488   -4.6693    0.0976 H         1 UNK         0.1150 
     16 H16         3.6936   -4.6926    0.0825 H         1 UNK         0.1150 
     17 H17         5.8954   -0.9993    0.0767 H         1 UNK         0.1150 
     18 H18         5.8564   -3.4806    0.0717 H         1 UNK         0.1150 
@<TRIPOS>BOND
     1    1    2 ar   
     2    1    3 ar   
     3    1   12 1    
     4    2    4 ar   
     5    2   13 1    
     6    3    5 ar   
     7    3   14 1    
     8    4    6 ar   
     9    4   15 1    
    10    5    6 ar   
    11    5    7 ar   
    12    6    8 ar   
    13    7    9 ar   
    14    7   10 1    
    15    8   11 ar   
    16    8   16 1    
    17    9   11 ar   
    18    9   17 1    
    19   11   18 1    
@<TRIPOS>SUBSTRUCTURE
     1 UNK         1 GROUP             0       ****    0 ROOT    
