@<TRIPOS>MOLECULE
title: molecule 1
17   18    1
SMALL
USER_CHARGES


@<TRIPOS>ATOM
      1 N1          3.6273   -2.5953    0.1191 N.ar      1 UNK        -0.7311 
      2 C2          4.7911   -1.9120    0.1304 C.ar      1 UNK         0.4305 
      3 C3          2.4635   -1.9059    0.0987 C.ar      1 UNK         0.7341 
      4 C4          4.8617   -0.5066    0.1220 C.ar      1 UNK        -0.4849 
      5 C5          2.4378   -0.4833    0.0888 C.ar      1 UNK        -0.1736 
      6 C6          1.2323   -2.5952    0.0865 C.ar      1 UNK        -0.4407 
      7 C7          3.6586    0.2221    0.1008 C.ar      1 UNK         0.0486 
      8 C8          1.2140    0.2172    0.0675 C.ar      1 UNK        -0.1673 
      9 C9          0.0085   -1.8985    0.0652 C.ar      1 UNK        -0.0433 
     10 C10        -0.0011   -0.4918    0.0557 C.ar      1 UNK        -0.2060 
     11 H11         5.6939   -2.5045    0.1467 H         1 UNK         0.0550 
     12 H12         5.8161   -0.0011    0.1317 H         1 UNK         0.1970 
     13 H13         1.2271   -3.6753    0.0936 H         1 UNK         0.2022 
     14 H14         3.6764    1.3023    0.0938 H         1 UNK         0.1325 
     15 H15         1.2021    1.2975    0.0601 H         1 UNK         0.1528 
     16 H16        -0.9235   -2.4446    0.0561 H         1 UNK         0.1388 
     17 H17        -0.9397    0.0427    0.0393 H         1 UNK         0.1554 
@<TRIPOS>BOND
     1    1    2 ar   
     2    1    3 ar   
     3    2    4 ar   
     4    2   11 1    
     5    3    5 ar   
     6    3    6 ar   
     7    4    7 ar   
     8    4   12 1    
     9    5    7 ar   
    10    5    8 ar   
    11    6    9 ar   
    12    6   13 1    
    13    7   14 1    
    14    8   10 ar   
    15    8   15 1    
    16    9   10 ar   
    17    9   16 1    
    18   10   17 1    
@<TRIPOS>SUBSTRUCTURE
     1 UNK         1 GROUP             0       ****    0 ROOT    
