@<TRIPOS>MOLECULE
title: molecule 1
50   52    1
SMALL
USER_CHARGES


@<TRIPOS>ATOM
      1 C1          5.6269   -5.0575   -0.3410 C.3       1 UNK        -0.0600 
      2 C2          5.7477   -4.3131   -1.6649 C.3       1 UNK        -0.0600 
      3 C3          6.2869   -5.7319   -1.5317 C.3       1 UNK         0.0000 
      4 C4          6.3884   -4.7071    0.8930 C.2       1 UNK        -0.1150 
      5 C5          6.7160   -3.1703   -1.8387 C.2       1 UNK         0.5100 
      6 C6          7.7815   -6.0434   -1.5210 C.3       1 UNK        -0.1800 
      7 C7          5.5465   -6.8453   -2.2505 C.3       1 UNK        -0.1800 
      8 C8          6.0045   -3.8166    1.8245 C.2       1 UNK         0.1200 
      9 O9          6.5095   -2.1827   -0.9476 O.3       1 UNK        -0.3300 
     10 O10         7.5558   -3.1578   -2.7392 O.2       1 UNK        -0.4300 
     11 C11         6.7940   -3.4752    3.0783 C.3       1 UNK         0.6000 
     12 Cl12        4.5485   -2.8922    1.6751 Cl        1 UNK        -0.1200 
     13 C13         7.3393   -1.0282   -0.9295 C.3       1 UNK         0.2618 
     14 F14         8.1030   -3.5818    2.8558 F         1 UNK        -0.2000 
     15 F15         6.5410   -2.2343    3.4959 F         1 UNK        -0.2000 
     16 F16         6.4729   -4.3177    4.0589 F         1 UNK        -0.2000 
     17 C17         8.3996   -1.1266    0.1590 C.ar      1 UNK        -0.0418 
     18 C18         6.4780    0.1608   -0.8133 C.1       1 UNK         0.5600 
     19 C19         9.5215   -1.9538   -0.0556 C.ar      1 UNK        -0.1150 
     20 C20         8.2800   -0.4273    1.3812 C.ar      1 UNK        -0.1150 
     21 N21         5.8005    1.0947   -0.7227 N.1       1 UNK        -0.5600 
     22 C22        10.5115   -2.0950    0.9393 C.ar      1 UNK         0.0850 
     23 C23         9.2777   -0.5494    2.3679 C.ar      1 UNK        -0.1150 
     24 O24        11.5921   -2.9146    0.7409 O.3       1 UNK        -0.1700 
     25 C25        10.3924   -1.3807    2.1472 C.ar      1 UNK        -0.1150 
     26 C26        11.3322   -4.2449    0.5343 C.ar      1 UNK         0.0850 
     27 C27        10.7717   -5.0378    1.5587 C.ar      1 UNK        -0.1150 
     28 C28        11.6396   -4.8287   -0.7114 C.ar      1 UNK        -0.1150 
     29 C29        10.5103   -6.4032    1.3337 C.ar      1 UNK        -0.1150 
     30 C30        11.3813   -6.1952   -0.9354 C.ar      1 UNK        -0.1150 
     31 C31        10.8166   -6.9825    0.0870 C.ar      1 UNK        -0.1150 
     32 H32         4.6270   -5.4058   -0.0888 H         1 UNK         0.0600 
     33 H33         4.8397   -4.2215   -2.2573 H         1 UNK         0.0600 
     34 H34         7.3192   -5.2324    1.0469 H         1 UNK         0.1150 
     35 H35         8.1583   -6.1248   -2.5409 H         1 UNK         0.0600 
     36 H36         8.3577   -5.2701   -1.0131 H         1 UNK         0.0600 
     37 H37         7.9655   -6.9884   -1.0094 H         1 UNK         0.0600 
     38 H38         5.8949   -6.9303   -3.2802 H         1 UNK         0.0600 
     39 H39         5.7096   -7.7982   -1.7463 H         1 UNK         0.0600 
     40 H40         4.4741   -6.6484   -2.2686 H         1 UNK         0.0600 
     41 H41         7.8555   -0.9058   -1.8826 H         1 UNK         0.0300 
     42 H42         9.6190   -2.4961   -0.9848 H         1 UNK         0.1150 
     43 H43         7.4260    0.2033    1.5791 H         1 UNK         0.1150 
     44 H44         9.1826   -0.0117    3.2997 H         1 UNK         0.1150 
     45 H45        11.1508   -1.4797    2.9098 H         1 UNK         0.1150 
     46 H46        10.5412   -4.5981    2.5179 H         1 UNK         0.1150 
     47 H47        12.0714   -4.2263   -1.4970 H         1 UNK         0.1150 
     48 H48        10.0775   -7.0064    2.1181 H         1 UNK         0.1150 
     49 H49        11.6148   -6.6389   -1.8920 H         1 UNK         0.1150 
     50 H50        10.6167   -8.0297   -0.0859 H         1 UNK         0.1150 
@<TRIPOS>BOND
     1    1    2 1    
     2    1    3 1    
     3    1    4 1    
     4    1   32 1    
     5    2    5 1    
     6    2    3 1    
     7    2   33 1    
     8    3    6 1    
     9    3    7 1    
    10    4    8 2    
    11    4   34 1    
    12    5    9 1    
    13    5   10 2    
    14    6   35 1    
    15    6   36 1    
    16    6   37 1    
    17    7   38 1    
    18    7   39 1    
    19    7   40 1    
    20    8   11 1    
    21    8   12 1    
    22    9   13 1    
    23   11   14 1    
    24   11   15 1    
    25   11   16 1    
    26   13   17 1    
    27   13   18 1    
    28   13   41 1    
    29   17   19 ar   
    30   17   20 ar   
    31   18   21 3    
    32   19   22 ar   
    33   19   42 1    
    34   20   23 ar   
    35   20   43 1    
    36   22   24 1    
    37   22   25 ar   
    38   23   25 ar   
    39   23   44 1    
    40   24   26 1    
    41   25   45 1    
    42   26   27 ar   
    43   26   28 ar   
    44   27   29 ar   
    45   27   46 1    
    46   28   30 ar   
    47   28   47 1    
    48   29   31 ar   
    49   29   48 1    
    50   30   31 ar   
    51   30   49 1    
    52   31   50 1    
@<TRIPOS>SUBSTRUCTURE
     1 UNK         1 GROUP             0       ****    0 ROOT    
