@<TRIPOS>MOLECULE
title: molecule 1
22   23    1
SMALL
USER_CHARGES


@<TRIPOS>ATOM
      1 C1          1.9790    0.1253   -0.3008 C.ar      1 UNK        -0.1150 
      2 C2          2.6982   -1.0262    0.0962 C.ar      1 UNK         0.0000 
      3 C3          0.5705    0.1330   -0.3128 C.ar      1 UNK        -0.1150 
      4 C4          1.9643   -2.1723    0.4820 C.ar      1 UNK        -0.1150 
      5 C5          4.1754   -1.0318    0.1075 C.ar      1 UNK         0.0000 
      6 C6         -0.1432   -1.0155    0.0744 C.ar      1 UNK        -0.1150 
      7 C7          0.5558   -2.1694    0.4724 C.ar      1 UNK        -0.1150 
      8 C8          4.9031    0.1080    0.5225 C.ar      1 UNK        -0.1150 
      9 C9          4.9008   -2.1771   -0.2963 C.ar      1 UNK        -0.1150 
     10 C10         6.3116    0.1051    0.5345 C.ar      1 UNK        -0.1150 
     11 C11         6.3092   -2.1848   -0.2867 C.ar      1 UNK        -0.1150 
     12 C12         7.0168   -1.0425    0.1293 C.ar      1 UNK        -0.1150 
     13 H13         2.5074    1.0154   -0.6093 H         1 UNK         0.1150 
     14 H14         0.0383    1.0209   -0.6210 H         1 UNK         0.1150 
     15 H15         2.4812   -3.0663    0.7986 H         1 UNK         0.1150 
     16 H16        -1.2232   -1.0114    0.0661 H         1 UNK         0.1150 
     17 H17         0.0122   -3.0532    0.7724 H         1 UNK         0.1150 
     18 H18         4.3813    0.9970    0.8449 H         1 UNK         0.1150 
     19 H19         4.3773   -3.0621   -0.6268 H         1 UNK         0.1150 
     20 H20         6.8504    0.9840    0.8565 H         1 UNK         0.1150 
     21 H21         6.8463   -3.0678   -0.6005 H         1 UNK         0.1150 
     22 H22         8.0968   -1.0466    0.1376 H         1 UNK         0.1150 
@<TRIPOS>BOND
     1    1    2 ar   
     2    1    3 ar   
     3    1   13 1    
     4    2    4 ar   
     5    2    5 1    
     6    3    6 ar   
     7    3   14 1    
     8    4    7 ar   
     9    4   15 1    
    10    5    8 ar   
    11    5    9 ar   
    12    6    7 ar   
    13    6   16 1    
    14    7   17 1    
    15    8   10 ar   
    16    8   18 1    
    17    9   11 ar   
    18    9   19 1    
    19   10   12 ar   
    20   10   20 1    
    21   11   12 ar   
    22   11   21 1    
    23   12   22 1    
@<TRIPOS>SUBSTRUCTURE
     1 UNK         1 GROUP             0       ****    0 ROOT    
