@<TRIPOS>MOLECULE
title: molecule 1
23   24    1
SMALL
USER_CHARGES


@<TRIPOS>ATOM
      1 O1         -0.1702   -1.0090    0.0821 O.3       1 UNK        -0.5850 
      2 C2          1.1941   -1.0188    0.0894 C.ar      1 UNK         0.1500 
      3 C3          1.9085    0.1217   -0.3205 C.ar      1 UNK        -0.1150 
      4 C4          1.8932   -2.1668    0.5060 C.ar      1 UNK        -0.1150 
      5 C5          3.3168    0.1123   -0.3128 C.ar      1 UNK        -0.1150 
      6 C6          3.3017   -2.1707    0.5110 C.ar      1 UNK        -0.1150 
      7 C7          4.0357   -1.0328    0.1025 C.ar      1 UNK         0.0000 
      8 C8          5.5130   -1.0400    0.1093 C.ar      1 UNK         0.0000 
      9 C9          6.2433    0.1060    0.5018 C.ar      1 UNK        -0.1150 
     10 C10         6.2357   -2.1932   -0.2764 C.ar      1 UNK        -0.1150 
     11 C11         7.6518    0.1015    0.5095 C.ar      1 UNK        -0.1150 
     12 C12         7.6442   -2.2025   -0.2710 C.ar      1 UNK        -0.1150 
     13 C13         8.3544   -1.0539    0.1226 C.ar      1 UNK        -0.1150 
     14 H14        -0.5500   -1.8229    0.3751 H         1 UNK         0.4350 
     15 H15         1.3782    1.0058   -0.6433 H         1 UNK         0.1150 
     16 H16         1.3549   -3.0474    0.8246 H         1 UNK         0.1150 
     17 H17         3.8452    0.9961   -0.6389 H         1 UNK         0.1150 
     18 H18         3.8188   -3.0594    0.8419 H         1 UNK         0.1150 
     19 H19         5.7236    1.0013    0.8100 H         1 UNK         0.1150 
     20 H20         5.7102   -3.0833   -0.5896 H         1 UNK         0.1150 
     21 H21         8.1927    0.9854    0.8143 H         1 UNK         0.1150 
     22 H22         8.1792   -3.0916   -0.5707 H         1 UNK         0.1150 
     23 H23         9.4344   -1.0592    0.1276 H         1 UNK         0.1150 
@<TRIPOS>BOND
     1    1    2 1    
     2    1   14 1    
     3    2    3 ar   
     4    2    4 ar   
     5    3    5 ar   
     6    3   15 1    
     7    4    6 ar   
     8    4   16 1    
     9    5    7 ar   
    10    5   17 1    
    11    6    7 ar   
    12    6   18 1    
    13    7    8 1    
    14    8    9 ar   
    15    8   10 ar   
    16    9   11 ar   
    17    9   19 1    
    18   10   12 ar   
    19   10   20 1    
    20   11   13 ar   
    21   11   21 1    
    22   12   13 ar   
    23   12   22 1    
    24   13   23 1    
@<TRIPOS>SUBSTRUCTURE
     1 UNK         1 GROUP             0       ****    0 ROOT    
