@<TRIPOS>MOLECULE
title: molecule 1
24   26    1
SMALL
USER_CHARGES


@<TRIPOS>ATOM
      1 C1          1.5225    2.4505   -0.0135 C.ar      1 UNK         0.0850 
      2 O2          2.7142    3.1237   -0.1497 O.3       1 UNK        -0.1700 
      3 C3          0.3354    3.2041    0.0855 C.ar      1 UNK        -0.1150 
      4 C4          1.4545    1.0376    0.0210 C.ar      1 UNK        -0.1150 
      5 C5          3.9084    2.4539   -0.0192 C.ar      1 UNK         0.0850 
      6 C6         -0.9095    2.5599    0.2206 C.ar      1 UNK        -0.1150 
      7 C7          0.2067    0.3940    0.1550 C.ar      1 UNK        -0.1150 
      8 C8          2.7185    0.2101   -0.0887 C.3       1 UNK         0.1100 
      9 C9          3.9806    1.0412    0.0149 C.ar      1 UNK        -0.1150 
     10 C10         5.0938    3.2109    0.0741 C.ar      1 UNK        -0.1150 
     11 C11        -0.9740    1.1542    0.2554 C.ar      1 UNK        -0.1150 
     12 C12         5.2308    0.4012    0.1430 C.ar      1 UNK        -0.1150 
     13 C13         6.3412    2.5702    0.2031 C.ar      1 UNK        -0.1150 
     14 C14         6.4098    1.1647    0.2377 C.ar      1 UNK        -0.1150 
     15 H15         0.3804    4.2829    0.0577 H         1 UNK         0.1150 
     16 H16        -1.8146    3.1444    0.2965 H         1 UNK         0.1150 
     17 H17         0.1527   -0.6846    0.1808 H         1 UNK         0.1150 
     18 H18         2.7169   -0.3164   -1.0436 H         1 UNK         0.0600 
     19 H19         2.7214   -0.5440    0.6993 H         1 UNK         0.0600 
     20 H20         5.0456    4.2896    0.0465 H         1 UNK         0.1150 
     21 H21        -1.9285    0.6593    0.3583 H         1 UNK         0.1150 
     22 H22         5.2880   -0.6773    0.1684 H         1 UNK         0.1150 
     23 H23         7.2450    3.1573    0.2747 H         1 UNK         0.1150 
     24 H24         7.3662    0.6725    0.3359 H         1 UNK         0.1150 
@<TRIPOS>BOND
     1    1    2 1    
     2    1    3 ar   
     3    1    4 ar   
     4    2    5 1    
     5    3    6 ar   
     6    3   15 1    
     7    4    7 ar   
     8    4    8 1    
     9    5    9 ar   
    10    5   10 ar   
    11    6   11 ar   
    12    6   16 1    
    13    7   11 ar   
    14    7   17 1    
    15    8    9 1    
    16    8   18 1    
    17    8   19 1    
    18    9   12 ar   
    19   10   13 ar   
    20   10   20 1    
    21   11   21 1    
    22   12   14 ar   
    23   12   22 1    
    24   13   14 ar   
    25   13   23 1    
    26   14   24 1    
@<TRIPOS>SUBSTRUCTURE
     1 UNK         1 GROUP             0       ****    0 ROOT    
