@<TRIPOS>MOLECULE
title: molecule 1
13   13    1
SMALL
USER_CHARGES


@<TRIPOS>ATOM
      1 Cl1         1.2038    0.5445    0.1065 Cl        1 UNK        -0.1800 
      2 C2          2.0731   -0.9522    0.1006 C.ar      1 UNK         0.1800 
      3 C3          3.4855   -0.9542    0.0909 C.ar      1 UNK         0.1800 
      4 C4          1.3699   -2.1779    0.1056 C.ar      1 UNK         0.1500 
      5 Cl5         4.3763    0.5264    0.0846 Cl        1 UNK        -0.1800 
      6 C6          4.1866   -2.1750    0.0862 C.ar      1 UNK        -0.1150 
      7 C7          2.0760   -3.4013    0.1008 C.ar      1 UNK         0.1800 
      8 O8          0.0027   -2.1834    0.1150 O.3       1 UNK        -0.5850 
      9 C9          3.4882   -3.3973    0.0911 C.ar      1 UNK         0.1800 
     10 Cl10        1.2057   -4.8973    0.1069 Cl        1 UNK        -0.1800 
     11 Cl11        4.3810   -4.8766    0.0851 Cl        1 UNK        -0.1800 
     12 H12         5.2668   -2.1738    0.0787 H         1 UNK         0.1150 
     13 H13        -0.3610   -3.0562    0.1176 H         1 UNK         0.4350 
@<TRIPOS>BOND
     1    1    2 1    
     2    2    3 ar   
     3    2    4 ar   
     4    3    5 1    
     5    3    6 ar   
     6    4    7 ar   
     7    4    8 1    
     8    6    9 ar   
     9    6   12 1    
    10    7    9 ar   
    11    7   10 1    
    12    8   13 1    
    13    9   11 1    
@<TRIPOS>SUBSTRUCTURE
     1 UNK         1 GROUP             0       ****    0 ROOT    
