@<TRIPOS>MOLECULE
title: molecule 1
16   16    1
SMALL
USER_CHARGES


@<TRIPOS>ATOM
      1 O1          0.0322   -2.2375    0.1312 O.3       1 UNK        -0.5850 
      2 C2          1.3978   -2.2157    0.1075 C.ar      1 UNK         0.1500 
      3 C3          2.0982   -0.9876    0.0985 C.ar      1 UNK        -0.1150 
      4 C4          2.1092   -3.4326    0.0921 C.ar      1 UNK        -0.1150 
      5 C5          1.3458    0.3301    0.1150 C.3       1 UNK        -0.0650 
      6 C6          3.5092   -0.9900    0.0741 C.ar      1 UNK        -0.1150 
      7 C7          3.5171   -3.4288    0.0677 C.ar      1 UNK        -0.1150 
      8 C8          4.2169   -2.2074    0.0587 C.ar      1 UNK        -0.1150 
      9 H9         -0.3255   -3.1118    0.1351 H         1 UNK         0.4350 
     10 H10         1.5787   -4.3735    0.0989 H         1 UNK         0.1150 
     11 H11         2.0283    1.1803    0.1053 H         1 UNK         0.0600 
     12 H12         0.6970    0.4062   -0.7580 H         1 UNK         0.0600 
     13 H13         0.7277    0.4017    1.0103 H         1 UNK         0.0600 
     14 H14         4.0553   -0.0581    0.0670 H         1 UNK         0.1150 
     15 H15         4.0598   -4.3625    0.0559 H         1 UNK         0.1150 
     16 H16         5.2969   -2.2039    0.0400 H         1 UNK         0.1150 
@<TRIPOS>BOND
     1    1    2 1    
     2    1    9 1    
     3    2    3 ar   
     4    2    4 ar   
     5    3    5 1    
     6    3    6 ar   
     7    4    7 ar   
     8    4   10 1    
     9    5   11 1    
    10    5   12 1    
    11    5   13 1    
    12    6    8 ar   
    13    6   14 1    
    14    7    8 ar   
    15    7   15 1    
    16    8   16 1    
@<TRIPOS>SUBSTRUCTURE
     1 UNK         1 GROUP             0       ****    0 ROOT    
