@<TRIPOS>MOLECULE
title: molecule 1
18   18    1
SMALL
USER_CHARGES


@<TRIPOS>ATOM
      1 C1         -0.0780   -2.2258    0.1222 C.3       1 UNK        -0.0650 
      2 C2          1.4402   -2.2027    0.1046 C.ar      1 UNK        -0.1150 
      3 C3          2.1518   -0.9778    0.0890 C.ar      1 UNK        -0.1150 
      4 C4          2.1504   -3.4225    0.1039 C.ar      1 UNK        -0.1150 
      5 C5          1.4199    0.3527    0.0894 C.3       1 UNK        -0.0650 
      6 C6          3.5631   -0.9906    0.0729 C.ar      1 UNK        -0.1150 
      7 C7          3.5579   -3.4275    0.0877 C.ar      1 UNK        -0.1150 
      8 C8          4.2646   -2.2110    0.0722 C.ar      1 UNK        -0.1150 
      9 H9         -0.4603   -3.2468    0.1328 H         1 UNK         0.0600 
     10 H10        -0.4575   -1.7172    1.0087 H         1 UNK         0.0600 
     11 H11        -0.4778   -1.7280   -0.7614 H         1 UNK         0.0600 
     12 H12         1.6180   -4.3623    0.1157 H         1 UNK         0.1150 
     13 H13         2.1175    1.1906    0.0763 H         1 UNK         0.0600 
     14 H14         0.7797    0.4366   -0.7890 H         1 UNK         0.0600 
     15 H15         0.8000    0.4474    0.9811 H         1 UNK         0.0600 
     16 H16         4.1158   -0.0626    0.0609 H         1 UNK         0.1150 
     17 H17         4.0950   -4.3645    0.0872 H         1 UNK         0.1150 
     18 H18         5.3446   -2.2135    0.0598 H         1 UNK         0.1150 
@<TRIPOS>BOND
     1    1    2 1    
     2    1    9 1    
     3    1   10 1    
     4    1   11 1    
     5    2    3 ar   
     6    2    4 ar   
     7    3    5 1    
     8    3    6 ar   
     9    4    7 ar   
    10    4   12 1    
    11    5   13 1    
    12    5   14 1    
    13    5   15 1    
    14    6    8 ar   
    15    6   16 1    
    16    7    8 ar   
    17    7   17 1    
    18    8   18 1    
@<TRIPOS>SUBSTRUCTURE
     1 UNK         1 GROUP             0       ****    0 ROOT    
