@<TRIPOS>MOLECULE
title: molecule 1
17   17    1
SMALL
USER_CHARGES


@<TRIPOS>ATOM
      1 N1          0.0096   -2.2269    0.1321 N.pl3     1 UNK        -0.9000 
      2 C2          1.4048   -2.2025    0.1076 C.ar      1 UNK         0.1800 
      3 C3          2.1138   -0.9770    0.0972 C.ar      1 UNK        -0.1150 
      4 C4          2.1111   -3.4227    0.0931 C.ar      1 UNK        -0.1150 
      5 C5          3.5250   -0.9900    0.0722 C.ar      1 UNK        -0.1150 
      6 C6          1.3795    0.3527    0.1126 C.3       1 UNK        -0.0650 
      7 C7          3.5188   -3.4279    0.0683 C.ar      1 UNK        -0.1150 
      8 C8          4.2258   -2.2111    0.0578 C.ar      1 UNK        -0.1150 
      9 H9         -0.5037   -3.0959    0.1003 H         1 UNK         0.3600 
     10 H10        -0.5319   -1.3751    0.1041 H         1 UNK         0.3600 
     11 H11         1.5763   -4.3613    0.1011 H         1 UNK         0.1150 
     12 H12         4.0778   -0.0620    0.0641 H         1 UNK         0.1150 
     13 H13         2.0750    1.1923    0.1050 H         1 UNK         0.0600 
     14 H14         0.7355    0.4413   -0.7627 H         1 UNK         0.0600 
     15 H15         0.7619    0.4355    1.0072 H         1 UNK         0.0600 
     16 H16         4.0555   -4.3650    0.0573 H         1 UNK         0.1150 
     17 H17         5.3057   -2.2140    0.0387 H         1 UNK         0.1150 
@<TRIPOS>BOND
     1    1    2 1    
     2    1    9 1    
     3    1   10 1    
     4    2    3 ar   
     5    2    4 ar   
     6    3    5 ar   
     7    3    6 1    
     8    4    7 ar   
     9    4   11 1    
    10    5    8 ar   
    11    5   12 1    
    12    6   13 1    
    13    6   14 1    
    14    6   15 1    
    15    7    8 ar   
    16    7   16 1    
    17    8   17 1    
@<TRIPOS>SUBSTRUCTURE
     1 UNK         1 GROUP             0       ****    0 ROOT    
