@<TRIPOS>MOLECULE
title: molecule 1
14   14    1
SMALL
USER_CHARGES


@<TRIPOS>ATOM
      1 N1          0.0150   -2.2046    0.1121 N.pl3     1 UNK        -0.9000 
      2 C2          1.4103   -2.2007    0.1057 C.ar      1 UNK         0.1800 
      3 C3          2.1325   -0.9849    0.0885 C.ar      1 UNK         0.1800 
      4 C4          2.1053   -3.4275    0.1165 C.ar      1 UNK        -0.1150 
      5 Cl5         1.3131    0.5379    0.0748 Cl        1 UNK        -0.1800 
      6 C6          3.5418   -1.0064    0.0823 C.ar      1 UNK        -0.1150 
      7 C7          3.5137   -3.4444    0.1102 C.ar      1 UNK        -0.1150 
      8 C8          4.2322   -2.2338    0.0931 C.ar      1 UNK        -0.1150 
      9 H9         -0.5143   -3.0646    0.1176 H         1 UNK         0.3600 
     10 H10        -0.5106   -1.3419    0.0985 H         1 UNK         0.3600 
     11 H11         1.5619   -4.3611    0.1296 H         1 UNK         0.1150 
     12 H12         4.0955   -0.0792    0.0692 H         1 UNK         0.1150 
     13 H13         4.0423   -4.3862    0.1186 H         1 UNK         0.1150 
     14 H14         5.3123   -2.2463    0.0883 H         1 UNK         0.1150 
@<TRIPOS>BOND
     1    1    2 1    
     2    1    9 1    
     3    1   10 1    
     4    2    3 ar   
     5    2    4 ar   
     6    3    5 1    
     7    3    6 ar   
     8    4    7 ar   
     9    4   11 1    
    10    6    8 ar   
    11    6   12 1    
    12    7    8 ar   
    13    7   13 1    
    14    8   14 1    
@<TRIPOS>SUBSTRUCTURE
     1 UNK         1 GROUP             0       ****    0 ROOT    
