@<TRIPOS>MOLECULE
title: molecule 1
12   12    1
SMALL
USER_CHARGES


@<TRIPOS>ATOM
      1 Cl1        -0.2933   -2.2236    0.1182 Cl        1 UNK        -0.1800 
      2 C2          1.4345   -2.2045    0.1042 C.ar      1 UNK         0.1800 
      3 C3          2.1472   -0.9844    0.0881 C.ar      1 UNK         0.1800 
      4 C4          2.1368   -3.4265    0.1091 C.ar      1 UNK        -0.1150 
      5 C5          3.5566   -0.9961    0.0769 C.ar      1 UNK        -0.1150 
      6 Cl6         1.3154    0.5301    0.0818 Cl        1 UNK        -0.1800 
      7 C7          3.5451   -3.4346    0.0979 C.ar      1 UNK        -0.1150 
      8 C8          4.2553   -2.2189    0.0818 C.ar      1 UNK        -0.1150 
      9 H9          1.5946   -4.3606    0.1214 H         1 UNK         0.1150 
     10 H10         4.1040   -0.0650    0.0645 H         1 UNK         0.1150 
     11 H11         4.0800   -4.3730    0.1016 H         1 UNK         0.1150 
     12 H12         5.3354   -2.2241    0.0732 H         1 UNK         0.1150 
@<TRIPOS>BOND
     1    1    2 1    
     2    2    3 ar   
     3    2    4 ar   
     4    3    5 ar   
     5    3    6 1    
     6    4    7 ar   
     7    4    9 1    
     8    5    8 ar   
     9    5   10 1    
    10    7    8 ar   
    11    7   11 1    
    12    8   12 1    
@<TRIPOS>SUBSTRUCTURE
     1 UNK         1 GROUP             0       ****    0 ROOT    
