@<TRIPOS>MOLECULE
title: molecule 1
14   14    1
SMALL
USER_CHARGES


@<TRIPOS>ATOM
      1 N1          0.0202   -2.6071    0.1202 N.pl3     1 UNK        -0.9000 
      2 C2          1.2170   -1.8895    0.1082 C.ar      1 UNK         0.1800 
      3 C3          1.2147   -0.4754    0.0952 C.ar      1 UNK         0.1800 
      4 C4          2.4422   -2.5876    0.1090 C.ar      1 UNK        -0.1150 
      5 C5          2.4361    0.2277    0.0832 C.ar      1 UNK        -0.1150 
      6 Cl6        -0.2688    0.4130    0.0939 Cl        1 UNK        -0.1800 
      7 C7          3.6607   -1.8809    0.0969 C.ar      1 UNK         0.1800 
      8 C8          3.6576   -0.4729    0.0840 C.ar      1 UNK        -0.1150 
      9 Cl9         5.1567   -2.7404    0.0979 Cl        1 UNK        -0.1800 
     10 H10         0.0049   -3.6168    0.1296 H         1 UNK         0.3600 
     11 H11        -0.8730   -2.1348    0.1200 H         1 UNK         0.3600 
     12 H12         2.4518   -3.6679    0.1188 H         1 UNK         0.1150 
     13 H13         2.4369    1.3078    0.0733 H         1 UNK         0.1150 
     14 H14         4.5909    0.0709    0.0748 H         1 UNK         0.1150 
@<TRIPOS>BOND
     1    1    2 1    
     2    1   10 1    
     3    1   11 1    
     4    2    3 ar   
     5    2    4 ar   
     6    3    5 ar   
     7    3    6 1    
     8    4    7 ar   
     9    4   12 1    
    10    5    8 ar   
    11    5   13 1    
    12    7    8 ar   
    13    7    9 1    
    14    8   14 1    
@<TRIPOS>SUBSTRUCTURE
     1 UNK         1 GROUP             0       ****    0 ROOT    
