@<TRIPOS>MOLECULE
title: molecule 1
13   13    1
SMALL
USER_CHARGES


@<TRIPOS>ATOM
      1 C1          3.6359   -3.1898    0.0849 C.ar      1 UNK        -0.1150 
      2 C2          2.4255   -3.9106    0.0998 C.ar      1 UNK         0.1800 
      3 C3          3.6258   -1.7812    0.0823 C.ar      1 UNK         0.1800 
      4 C4          1.1954   -3.2169    0.1122 C.ar      1 UNK         0.1800 
      5 Cl5         2.4714   -5.6377    0.1026 Cl        1 UNK        -0.1800 
      6 C6          2.3962   -1.0873    0.0948 C.ar      1 UNK         0.1500 
      7 Cl7         5.1253   -0.9229    0.0640 Cl        1 UNK        -0.1800 
      8 C8          1.1851   -1.8078    0.1097 C.ar      1 UNK        -0.1150 
      9 Cl9        -0.3061   -4.0717    0.1307 Cl        1 UNK        -0.1800 
     10 O10         2.3682    0.2782    0.0925 O.3       1 UNK        -0.5850 
     11 H11         4.5769   -3.7200    0.0754 H         1 UNK         0.1150 
     12 H12         0.2419   -1.2813    0.1192 H         1 UNK         0.1150 
     13 H13         1.4941    0.6369    0.1016 H         1 UNK         0.4350 
@<TRIPOS>BOND
     1    1    2 ar   
     2    1    3 ar   
     3    1   11 1    
     4    2    4 ar   
     5    2    5 1    
     6    3    6 ar   
     7    3    7 1    
     8    4    8 ar   
     9    4    9 1    
    10    6    8 ar   
    11    6   10 1    
    12    8   12 1    
    13   10   13 1    
@<TRIPOS>SUBSTRUCTURE
     1 UNK         1 GROUP             0       ****    0 ROOT    
