@<TRIPOS>MOLECULE
title: molecule 1
25   27    1
SMALL
USER_CHARGES


@<TRIPOS>ATOM
      1 C1          3.3944   -4.5704   -8.0840 C.2       1 UNK         0.1200 
      2 C2          4.4953   -3.8832   -7.7939 C.2       1 UNK         0.1200 
      3 C3          2.9836   -5.3217   -6.8307 C.3       1 UNK         0.2000 
      4 Cl4         2.6106   -4.8486   -9.5968 Cl        1 UNK        -0.1200 
      5 C5          4.8224   -4.1345   -6.3314 C.3       1 UNK         0.2000 
      6 Cl6         5.5607   -2.9864   -8.8145 Cl        1 UNK        -0.1200 
      7 C7          2.4507   -4.2919   -5.7913 C.3       1 UNK        -0.0600 
      8 Cl8         1.9486   -6.7609   -7.0465 Cl        1 UNK        -0.2000 
      9 C9          4.3883   -5.6222   -6.2387 C.3       1 UNK         0.2716 
     10 C10         3.7040   -3.3848   -5.5449 C.3       1 UNK        -0.0600 
     11 Cl11        6.4974   -3.7827   -5.8181 Cl        1 UNK        -0.2000 
     12 C12         1.2047   -3.4790   -6.2027 C.3       1 UNK         0.1025 
     13 Cl13        5.3715   -6.7021   -7.2840 Cl        1 UNK        -0.1358 
     14 Cl14        4.3728   -6.3070   -4.5818 Cl        1 UNK        -0.1358 
     15 C15         3.9522   -3.0309   -4.0621 C.3       1 UNK         0.1025 
     16 O16         0.5597   -2.8974   -5.0760 O.3       1 UNK        -0.4375 
     17 O17         2.7475   -2.8346   -3.3299 O.3       1 UNK        -0.4375 
     18 S18         1.5181   -1.8824   -4.0690 S.3       1 UNK         0.8900 
     19 O19         2.1525   -0.7734   -4.9113 O.2       1 UNK        -0.4600 
     20 H20         2.1874   -4.8395   -4.8857 H         1 UNK         0.0600 
     21 H21         3.5645   -2.4278   -6.0498 H         1 UNK         0.0600 
     22 H22         0.4792   -4.1354   -6.6834 H         1 UNK         0.0600 
     23 H23         1.4512   -2.7051   -6.9306 H         1 UNK         0.0600 
     24 H24         4.5213   -3.8062   -3.5527 H         1 UNK         0.0600 
     25 H25         4.5549   -2.1240   -4.0005 H         1 UNK         0.0600 
@<TRIPOS>BOND
     1    1    2 2    
     2    1    3 1    
     3    1    4 1    
     4    2    5 1    
     5    2    6 1    
     6    3    7 1    
     7    3    8 1    
     8    3    9 1    
     9    5    9 1    
    10    5   10 1    
    11    5   11 1    
    12    7   10 1    
    13    7   12 1    
    14    7   20 1    
    15    9   13 1    
    16    9   14 1    
    17   10   15 1    
    18   10   21 1    
    19   12   16 1    
    20   12   22 1    
    21   12   23 1    
    22   15   17 1    
    23   15   24 1    
    24   15   25 1    
    25   16   18 1    
    26   17   18 1    
    27   18   19 2    
@<TRIPOS>SUBSTRUCTURE
     1 UNK         1 GROUP             0       ****    0 ROOT    
