@<TRIPOS>MOLECULE
title: molecule 1
12   12    1
SMALL
USER_CHARGES


@<TRIPOS>ATOM
      1 S1         -0.2156   -0.9302    0.0891 S.2       1 UNK        -0.4762 
      2 C2          1.4425   -0.9353    0.0914 C.2       1 UNK         0.4442 
      3 N3          2.2538    0.1399    0.0755 N.pl3     1 UNK        -0.4272 
      4 N4          2.2471   -2.0154    0.1095 N.pl3     1 UNK        -0.4272 
      5 C5          3.6681   -0.1777    0.0824 C.3       1 UNK         0.0320 
      6 C6          3.6634   -1.7065    0.1065 C.3       1 UNK         0.0320 
      7 H7          1.8989    1.0852    0.0601 H         1 UNK         0.2912 
      8 H8          1.8864   -2.9586    0.1239 H         1 UNK         0.2912 
      9 H9          4.1519    0.2422    0.9647 H         1 UNK         0.0600 
     10 H10         4.1542    0.2142   -0.8115 H         1 UNK         0.0600 
     11 H11         4.1469   -2.1294   -0.7746 H         1 UNK         0.0600 
     12 H12         4.1446   -2.1014    1.0017 H         1 UNK         0.0600 
@<TRIPOS>BOND
     1    1    2 2    
     2    2    3 1    
     3    2    4 1    
     4    3    5 1    
     5    3    7 1    
     6    4    6 1    
     7    4    8 1    
     8    5    6 1    
     9    5    9 1    
    10    5   10 1    
    11    6   11 1    
    12    6   12 1    
@<TRIPOS>SUBSTRUCTURE
     1 UNK         1 GROUP             0       ****    0 ROOT    
