@<TRIPOS>MOLECULE
title: molecule 1
34   34    1
SMALL
USER_CHARGES


@<TRIPOS>ATOM
      1 S1         -1.8025    4.5463    0.7211 S.3       1 UNK        -0.2199 
      2 C2         -0.8580    3.0185    0.7107 C.2       1 UNK         0.6719 
      3 C3         -2.8998    3.9634   -0.5807 C.3       1 UNK         0.0475 
      4 N4         -1.4824    2.0620   -0.0776 N.am      1 UNK        -0.4575 
      5 O5          0.1907    2.9015    1.3416 O.2       1 UNK        -0.4970 
      6 C6         -2.7757    2.4410   -0.6329 C.3       1 UNK         0.0025 
      7 P7         -0.8415    0.4860   -0.3072 P.3       1 UNK         1.1643 
      8 O8         -0.9005   -0.0883    1.2153 O.3       1 UNK        -0.4611 
      9 O9         -1.6343   -0.2833   -1.3078 O.2       1 UNK        -0.6661 
     10 S10         1.2509    0.3879   -0.7192 S.3       1 UNK        -0.1050 
     11 C11        -2.0342   -0.7758    1.7120 C.3       1 UNK         0.1529 
     12 C12         1.5343   -1.4044   -0.6337 C.3       1 UNK        -0.0525 
     13 C13        -2.0140   -2.2507    1.2909 C.3       1 UNK        -0.1800 
     14 C14         2.9047   -1.6895    0.0077 C.3       1 UNK        -0.1200 
     15 C15         1.3874   -2.0292   -2.0297 C.3       1 UNK        -0.1800 
     16 C16         3.1289   -3.1652    0.3648 C.3       1 UNK        -0.1800 
     17 H17        -2.5649    4.3977   -1.5232 H         1 UNK         0.0600 
     18 H18        -3.9259    4.2891   -0.4090 H         1 UNK         0.0600 
     19 H19        -2.8917    2.0759   -1.6539 H         1 UNK         0.0600 
     20 H20        -3.5554    1.9762   -0.0281 H         1 UNK         0.0600 
     21 H21        -2.0331   -0.6991    2.7993 H         1 UNK         0.0600 
     22 H22        -2.9463   -0.2910    1.3611 H         1 UNK         0.0600 
     23 H23         0.7650   -1.8204    0.0170 H         1 UNK         0.0600 
     24 H24        -2.8674   -2.7837    1.7102 H         1 UNK         0.0600 
     25 H25        -2.0544   -2.3656    0.2085 H         1 UNK         0.0600 
     26 H26        -1.1078   -2.7428    1.6446 H         1 UNK         0.0600 
     27 H27         3.7031   -1.3458   -0.6512 H         1 UNK         0.0600 
     28 H28         2.9955   -1.1033    0.9231 H         1 UNK         0.0600 
     29 H29         1.4613   -3.1157   -1.9930 H         1 UNK         0.0600 
     30 H30         0.4181   -1.7887   -2.4667 H         1 UNK         0.0600 
     31 H31         2.1571   -1.6637   -2.7101 H         1 UNK         0.0600 
     32 H32         4.0818   -3.2964    0.8779 H         1 UNK         0.0600 
     33 H33         2.3439   -3.5346    1.0251 H         1 UNK         0.0600 
     34 H34         3.1476   -3.7964   -0.5234 H         1 UNK         0.0600 
@<TRIPOS>BOND
     1    1    2 1    
     2    1    3 1    
     3    2    4 am   BACKBONE|DICT|INTERRES
     4    2    5 2    
     5    3    6 1    
     6    3   17 1    
     7    3   18 1    
     8    4    6 1    
     9    4    7 1    
    10    6   19 1    
    11    6   20 1    
    12    7    8 1    
    13    7    9 2    
    14    7   10 1    
    15    8   11 1    
    16   10   12 1    
    17   11   13 1    
    18   11   21 1    
    19   11   22 1    
    20   12   14 1    
    21   12   15 1    
    22   12   23 1    
    23   13   24 1    
    24   13   25 1    
    25   13   26 1    
    26   14   16 1    
    27   14   27 1    
    28   14   28 1    
    29   15   29 1    
    30   15   30 1    
    31   15   31 1    
    32   16   32 1    
    33   16   33 1    
    34   16   34 1    
@<TRIPOS>SUBSTRUCTURE
     1 UNK         1 GROUP             0       ****    0 ROOT    
