@<TRIPOS>MOLECULE
title: molecule 1
34   34    1
SMALL
USER_CHARGES


@<TRIPOS>ATOM
      1 S1         -2.0667    4.3925    1.2207 S.3       1 UNK        -0.2199 
      2 C2         -1.1481    2.8489    1.2306 C.2       1 UNK         0.6719 
      3 C3         -2.6744    4.1060   -0.4487 C.3       1 UNK         0.0475 
      4 N4         -1.4686    2.0812    0.1198 N.am      1 UNK        -0.4575 
      5 O5         -0.3599    2.5706    2.1321 O.2       1 UNK        -0.4970 
      6 C6         -2.5177    2.6140   -0.7404 C.3       1 UNK         0.0025 
      7 P7         -0.7670    0.5434   -0.1790 P.3       1 UNK         1.1643 
      8 O8         -1.3266   -0.2941    1.1001 O.3       1 UNK        -0.4611 
      9 O9         -1.1686    0.0121   -1.5125 O.2       1 UNK        -0.6661 
     10 S10         1.3446    0.4148    0.1106 S.3       1 UNK        -0.1050 
     11 C11        -2.4921   -1.0939    1.0204 C.3       1 UNK         0.1529 
     12 C12         1.5972   -1.3820    0.0207 C.3       1 UNK        -0.0525 
     13 C13        -2.1852   -2.4584    0.3901 C.3       1 UNK        -0.1800 
     14 C14         2.8688   -1.6940   -0.7896 C.3       1 UNK        -0.1200 
     15 C15         1.6314   -1.9802    1.4358 C.3       1 UNK        -0.1800 
     16 C16         3.0349   -3.1793   -1.1386 C.3       1 UNK        -0.1800 
     17 H17        -2.0586    4.6874   -1.1357 H         1 UNK         0.0600 
     18 H18        -3.7055    4.4428   -0.5581 H         1 UNK         0.0600 
     19 H19        -2.2914    2.4451   -1.7938 H         1 UNK         0.0600 
     20 H20        -3.4442    2.0842   -0.5152 H         1 UNK         0.0600 
     21 H21        -2.8840   -1.2297    2.0283 H         1 UNK         0.0600 
     22 H22        -3.2613   -0.5727    0.4487 H         1 UNK         0.0600 
     23 H23         0.7447   -1.8005   -0.5149 H         1 UNK         0.0600 
     24 H24        -3.0761   -3.0861    0.3755 H         1 UNK         0.0600 
     25 H25        -1.8343   -2.3627   -0.6367 H         1 UNK         0.0600 
     26 H26        -1.4168   -2.9842    0.9571 H         1 UNK         0.0600 
     27 H27         2.8413   -1.1290   -1.7222 H         1 UNK         0.0600 
     28 H28         3.7494   -1.3433   -0.2500 H         1 UNK         0.0600 
     29 H29         1.6813   -3.0684    1.4102 H         1 UNK         0.0600 
     30 H30         2.4928   -1.6180    1.9977 H         1 UNK         0.0600 
     31 H31         0.7358   -1.7139    1.9970 H         1 UNK         0.0600 
     32 H32         3.9105   -3.3305   -1.7702 H         1 UNK         0.0600 
     33 H33         3.1676   -3.7906   -0.2463 H         1 UNK         0.0600 
     34 H34         2.1671   -3.5564   -1.6803 H         1 UNK         0.0600 
@<TRIPOS>BOND
     1    1    2 1    
     2    1    3 1    
     3    2    4 am   BACKBONE|DICT|INTERRES
     4    2    5 2    
     5    3    6 1    
     6    3   17 1    
     7    3   18 1    
     8    4    6 1    
     9    4    7 1    
    10    6   19 1    
    11    6   20 1    
    12    7    8 1    
    13    7    9 2    
    14    7   10 1    
    15    8   11 1    
    16   10   12 1    
    17   11   13 1    
    18   11   21 1    
    19   11   22 1    
    20   12   14 1    
    21   12   15 1    
    22   12   23 1    
    23   13   24 1    
    24   13   25 1    
    25   13   26 1    
    26   14   16 1    
    27   14   27 1    
    28   14   28 1    
    29   15   29 1    
    30   15   30 1    
    31   15   31 1    
    32   16   32 1    
    33   16   33 1    
    34   16   34 1    
@<TRIPOS>SUBSTRUCTURE
     1 UNK         1 GROUP             0       ****    0 ROOT    
