@<TRIPOS>MOLECULE
title: molecule 1
23   22    1
SMALL
USER_CHARGES


@<TRIPOS>ATOM
      1 S1          2.4842   -0.4578    0.9031 S.2       1 UNK        -0.4762 
      2 C2          2.1549   -1.7915   -0.0641 C.2       1 UNK         0.6062 
      3 N3          1.0073   -2.5379    0.0429 N.pl3     1 UNK        -0.2625 
      4 S4          3.2536   -2.3339   -1.3625 S.3       1 UNK        -0.0150 
      5 C5         -0.0403   -2.2432    1.0299 C.3       1 UNK        -0.1100 
      6 C6          0.7346   -3.7004   -0.8104 C.3       1 UNK        -0.1100 
      7 C7          4.8405   -1.5879   -1.1210 C.2       1 UNK         0.6062 
      8 S8          5.3460   -0.4460   -2.2315 S.2       1 UNK        -0.4762 
      9 N9          5.5746   -2.0293   -0.0494 N.pl3     1 UNK        -0.2625 
     10 C10         6.8589   -1.4261    0.3222 C.3       1 UNK        -0.1100 
     11 C11         5.1796   -3.1817    0.7673 C.3       1 UNK        -0.1100 
     12 H12        -0.8781   -2.9376    0.9689 H         1 UNK         0.0600 
     13 H13         0.3560   -2.3064    2.0441 H         1 UNK         0.0600 
     14 H14        -0.4436   -1.2412    0.8777 H         1 UNK         0.0600 
     15 H15        -0.2120   -4.1819   -0.5656 H         1 UNK         0.0600 
     16 H16         0.6811   -3.4067   -1.8595 H         1 UNK         0.0600 
     17 H17         1.5135   -4.4556   -0.6977 H         1 UNK         0.0600 
     18 H18         7.2174   -1.7925    1.2844 H         1 UNK         0.0600 
     19 H19         7.6202   -1.6534   -0.4248 H         1 UNK         0.0600 
     20 H20         6.7712   -0.3423    0.4095 H         1 UNK         0.0600 
     21 H21         6.0150   -3.5596    1.3570 H         1 UNK         0.0600 
     22 H22         4.3856   -2.9127    1.4634 H         1 UNK         0.0600 
     23 H23         4.8368   -4.0124    0.1496 H         1 UNK         0.0600 
@<TRIPOS>BOND
     1    1    2 2    
     2    2    3 1    
     3    2    4 1    
     4    3    5 1    
     5    3    6 1    
     6    4    7 1    
     7    5   12 1    
     8    5   13 1    
     9    5   14 1    
    10    6   15 1    
    11    6   16 1    
    12    6   17 1    
    13    7    8 2    
    14    7    9 1    
    15    9   10 1    
    16    9   11 1    
    17   10   18 1    
    18   10   19 1    
    19   10   20 1    
    20   11   21 1    
    21   11   22 1    
    22   11   23 1    
@<TRIPOS>SUBSTRUCTURE
     1 UNK         1 GROUP             0       ****    0 ROOT    
