@<TRIPOS>MOLECULE
title: molecule 1
36   35    1
SMALL
USER_CHARGES


@<TRIPOS>ATOM
      1 S1          5.9921   -2.2118    1.4420 S.2       1 UNK        -0.4762 
      2 C2          6.2955   -2.9632   -0.0264 C.2       1 UNK         0.6062 
      3 N3          7.3678   -3.7927   -0.2663 N.pl3     1 UNK        -0.2625 
      4 S4          5.2153   -2.7188   -1.4176 S.3       1 UNK        -0.0075 
      5 C5          8.3592   -4.1602    0.7610 C.3       1 UNK        -0.0500 
      6 C6          7.6482   -4.4111   -1.5734 C.3       1 UNK        -0.0500 
      7 S7          3.5714   -1.6213   -0.8234 S.3       1 UNK        -0.0075 
      8 C8          7.8952   -5.3583    1.6042 C.3       1 UNK        -0.1800 
      9 C9          8.4096   -3.4593   -2.5095 C.3       1 UNK        -0.1800 
     10 C10         2.3362   -2.7184   -0.1657 C.2       1 UNK         0.6062 
     11 S11         2.5343   -4.3821   -0.2403 S.2       1 UNK        -0.4762 
     12 N12         1.2405   -2.0916    0.3840 N.pl3     1 UNK        -0.2625 
     13 C13         0.1233   -2.8130    1.0200 C.3       1 UNK        -0.0500 
     14 C14         1.0575   -0.6302    0.4033 C.3       1 UNK        -0.0500 
     15 C15         0.4121   -3.1326    2.4953 C.3       1 UNK        -0.1800 
     16 C16         0.4666   -0.1061   -0.9151 C.3       1 UNK        -0.1800 
     17 H17         9.3046   -4.4121    0.2787 H         1 UNK         0.0600 
     18 H18         8.5985   -3.3133    1.4043 H         1 UNK         0.0600 
     19 H19         8.2493   -5.3093   -1.4256 H         1 UNK         0.0600 
     20 H20         6.7373   -4.7746   -2.0488 H         1 UNK         0.0600 
     21 H21         8.6554   -5.6308    2.3362 H         1 UNK         0.0600 
     22 H22         6.9773   -5.1388    2.1493 H         1 UNK         0.0600 
     23 H23         7.7104   -6.2317    0.9783 H         1 UNK         0.0600 
     24 H24         8.6331   -3.9499   -3.4569 H         1 UNK         0.0600 
     25 H25         7.8362   -2.5598   -2.7325 H         1 UNK         0.0600 
     26 H26         9.3565   -3.1489   -2.0671 H         1 UNK         0.0600 
     27 H27        -0.7811   -2.2062    0.9601 H         1 UNK         0.0600 
     28 H28        -0.1234   -3.7245    0.4755 H         1 UNK         0.0600 
     29 H29         0.3835   -0.3622    1.2180 H         1 UNK         0.0600 
     30 H30         1.9861   -0.1128    0.6436 H         1 UNK         0.0600 
     31 H31        -0.4381   -3.6387    2.9526 H         1 UNK         0.0600 
     32 H32         1.2803   -3.7819    2.6067 H         1 UNK         0.0600 
     33 H33         0.6011   -2.2225    3.0651 H         1 UNK         0.0600 
     34 H34         0.3108    0.9715   -0.8646 H         1 UNK         0.0600 
     35 H35         1.1210   -0.3041   -1.7637 H         1 UNK         0.0600 
     36 H36        -0.4980   -0.5696   -1.1239 H         1 UNK         0.0600 
@<TRIPOS>BOND
     1    1    2 2    
     2    2    3 1    
     3    2    4 1    
     4    3    5 1    
     5    3    6 1    
     6    4    7 1    
     7    5    8 1    
     8    5   17 1    
     9    5   18 1    
    10    6    9 1    
    11    6   19 1    
    12    6   20 1    
    13    7   10 1    
    14    8   21 1    
    15    8   22 1    
    16    8   23 1    
    17    9   24 1    
    18    9   25 1    
    19    9   26 1    
    20   10   11 2    
    21   10   12 1    
    22   12   13 1    
    23   12   14 1    
    24   13   15 1    
    25   13   27 1    
    26   13   28 1    
    27   14   16 1    
    28   14   29 1    
    29   14   30 1    
    30   15   31 1    
    31   15   32 1    
    32   15   33 1    
    33   16   34 1    
    34   16   35 1    
    35   16   36 1    
@<TRIPOS>SUBSTRUCTURE
     1 UNK         1 GROUP             0       ****    0 ROOT    
