@<TRIPOS>MOLECULE
title: molecule 1
21   21    1
SMALL
USER_CHARGES


@<TRIPOS>ATOM
      1 C1          2.9471    0.1340   -0.5012 C.ar      1 UNK        -0.1150 
      2 C2          4.3494    0.0346   -0.4128 C.ar      1 UNK        -0.1150 
      3 C3          2.1252   -0.8872    0.0239 C.ar      1 UNK        -0.1150 
      4 C4          4.9397   -1.0865    0.2012 C.ar      1 UNK        -0.1150 
      5 C5          2.7244   -2.0094    0.6387 C.ar      1 UNK        -0.1150 
      6 C6          0.6092   -0.7726   -0.0755 C.3       1 UNK         0.0550 
      7 C7          4.1266   -2.1085    0.7269 C.ar      1 UNK        -0.1150 
      8 C8          0.0102   -1.9010   -0.9296 C.3       1 UNK        -0.1800 
      9 C9         -0.0462   -0.7027    1.3127 C.3       1 UNK        -0.1800 
     10 H10         2.5069    0.9993   -0.9747 H         1 UNK         0.1150 
     11 H11         4.9724    0.8192   -0.8164 H         1 UNK         0.1150 
     12 H12         6.0150   -1.1624    0.2688 H         1 UNK         0.1150 
     13 H13         2.1108   -2.7996    1.0455 H         1 UNK         0.1150 
     14 H14         0.3816    0.1659   -0.5828 H         1 UNK         0.0600 
     15 H15         4.5781   -2.9690    1.1981 H         1 UNK         0.1150 
     16 H16        -1.0673   -1.7773   -1.0413 H         1 UNK         0.0600 
     17 H17         0.4454   -1.9076   -1.9294 H         1 UNK         0.0600 
     18 H18         0.1847   -2.8806   -0.4839 H         1 UNK         0.0600 
     19 H19        -1.1244   -0.5636    1.2297 H         1 UNK         0.0600 
     20 H20         0.1250   -1.6140    1.8862 H         1 UNK         0.0600 
     21 H21         0.3493    0.1336    1.8900 H         1 UNK         0.0600 
@<TRIPOS>BOND
     1    1    2 ar   
     2    1    3 ar   
     3    1   10 1    
     4    2    4 ar   
     5    2   11 1    
     6    3    5 ar   
     7    3    6 1    
     8    4    7 ar   
     9    4   12 1    
    10    5    7 ar   
    11    5   13 1    
    12    6    8 1    
    13    6    9 1    
    14    6   14 1    
    15    7   15 1    
    16    8   16 1    
    17    8   17 1    
    18    8   18 1    
    19    9   19 1    
    20    9   20 1    
    21    9   21 1    
@<TRIPOS>SUBSTRUCTURE
     1 UNK         1 GROUP             0       ****    0 ROOT    
