@<TRIPOS>MOLECULE
title: molecule 1
14   14    1
SMALL
USER_CHARGES


@<TRIPOS>ATOM
      1 O1         -0.0245   -2.0835    0.1254 O.co2     1 UNK        -0.3700 
      2 N2          0.5630   -1.0064    0.1248 N.pl3     1 UNK         0.6500 
      3 C3          2.0393   -1.0152    0.1096 C.ar      1 UNK         0.0900 
      4 O4         -0.0115    0.0776    0.1362 O.co2     1 UNK        -0.3700 
      5 C5          2.7527   -2.2375    0.0961 C.ar      1 UNK        -0.1150 
      6 C6          2.7673    0.1985    0.1083 C.ar      1 UNK        -0.1150 
      7 C7          4.1611   -2.2456    0.0816 C.ar      1 UNK        -0.1150 
      8 C8          4.1758    0.1898    0.0938 C.ar      1 UNK        -0.1150 
      9 C9          4.8735   -1.0321    0.0805 C.ar      1 UNK        -0.1150 
     10 H10         2.2265   -3.1809    0.0967 H         1 UNK         0.1150 
     11 H11         2.2526    1.1481    0.1184 H         1 UNK         0.1150 
     12 H12         4.6951   -3.1845    0.0714 H         1 UNK         0.1150 
     13 H13         4.7210    1.1222    0.0929 H         1 UNK         0.1150 
     14 H14         5.9536   -1.0386    0.0694 H         1 UNK         0.1150 
@<TRIPOS>BOND
     1    1    2 2    
     2    2    3 1    
     3    2    4 1    
     4    3    5 ar   
     5    3    6 ar   
     6    5    7 ar   
     7    5   10 1    
     8    6    8 ar   
     9    6   11 1    
    10    7    9 ar   
    11    7   12 1    
    12    8    9 ar   
    13    8   13 1    
    14    9   14 1    
@<TRIPOS>SUBSTRUCTURE
     1 UNK         1 GROUP             0       ****    0 ROOT    
