@<TRIPOS>MOLECULE
title: molecule 1
34   34    1
SMALL
USER_CHARGES


@<TRIPOS>ATOM
      1 P1          3.2347   -2.3640    0.7411 P.3       1 UNK         1.1643 
      2 O2          3.3521   -2.8408    2.1477 O.2       1 UNK        -0.6661 
      3 O3          3.9108   -0.9045    0.4659 O.3       1 UNK        -0.4611 
      4 S4          4.2993   -3.6463   -0.6035 S.3       1 UNK        -0.1050 
      5 N5          1.5923   -2.0630    0.3343 N.am      1 UNK        -0.4575 
      6 C6          3.8349   -0.2355   -0.7843 C.3       1 UNK         0.1529 
      7 C7          5.7611   -4.0985    0.3799 C.3       1 UNK        -0.0525 
      8 C8          0.8099   -1.1330    1.0056 C.2       1 UNK         0.6719 
      9 C9          0.9116   -2.8473   -0.6880 C.3       1 UNK         0.0025 
     10 C10         5.1824   -0.2785   -1.5122 C.3       1 UNK        -0.1800 
     11 C11         6.3909   -5.3842   -0.1887 C.3       1 UNK        -0.1200 
     12 C12         6.7590   -2.9306    0.4416 C.3       1 UNK        -0.1800 
     13 S13        -0.8460   -1.0799    0.3120 S.3       1 UNK        -0.2199 
     14 O14         1.1413   -0.4122    1.9448 O.2       1 UNK        -0.4970 
     15 C15        -0.3778   -2.1245   -1.0763 C.3       1 UNK         0.0475 
     16 C16         7.4666   -6.0050    0.7132 C.3       1 UNK        -0.1800 
     17 H17         3.0592   -0.6653   -1.4186 H         1 UNK         0.0600 
     18 H18         3.5479    0.7993   -0.5968 H         1 UNK         0.0600 
     19 H19         5.4112   -4.3146    1.3895 H         1 UNK         0.0600 
     20 H20         0.6849   -3.8291   -0.2703 H         1 UNK         0.0600 
     21 H21         1.5471   -2.9998   -1.5606 H         1 UNK         0.0600 
     22 H22         5.1419    0.3032   -2.4332 H         1 UNK         0.0600 
     23 H23         5.9748    0.1379   -0.8900 H         1 UNK         0.0600 
     24 H24         5.4657   -1.2946   -1.7805 H         1 UNK         0.0600 
     25 H25         5.6060   -6.1271   -0.3364 H         1 UNK         0.0600 
     26 H26         6.8096   -5.1878   -1.1765 H         1 UNK         0.0600 
     27 H27         7.6042   -3.1601    1.0897 H         1 UNK         0.0600 
     28 H28         7.1524   -2.6925   -0.5468 H         1 UNK         0.0600 
     29 H29         6.2918   -2.0305    0.8399 H         1 UNK         0.0600 
     30 H30        -1.1778   -2.8173   -1.3380 H         1 UNK         0.0600 
     31 H31        -0.1993   -1.4797   -1.9374 H         1 UNK         0.0600 
     32 H32         7.8203   -6.9482    0.2964 H         1 UNK         0.0600 
     33 H33         8.3321   -5.3511    0.8180 H         1 UNK         0.0600 
     34 H34         7.0754   -6.2100    1.7100 H         1 UNK         0.0600 
@<TRIPOS>BOND
     1    1    2 2    
     2    1    3 1    
     3    1    4 1    
     4    1    5 1    
     5    3    6 1    
     6    4    7 1    
     7    5    8 am   BACKBONE|DICT|INTERRES
     8    5    9 1    
     9    6   10 1    
    10    6   17 1    
    11    6   18 1    
    12    7   11 1    
    13    7   12 1    
    14    7   19 1    
    15    8   13 1    
    16    8   14 2    
    17    9   15 1    
    18    9   20 1    
    19    9   21 1    
    20   10   22 1    
    21   10   23 1    
    22   10   24 1    
    23   11   16 1    
    24   11   25 1    
    25   11   26 1    
    26   12   27 1    
    27   12   28 1    
    28   12   29 1    
    29   13   15 1    
    30   15   30 1    
    31   15   31 1    
    32   16   32 1    
    33   16   33 1    
    34   16   34 1    
@<TRIPOS>SUBSTRUCTURE
     1 UNK         1 GROUP             0       ****    0 ROOT    
