@<TRIPOS>MOLECULE
title: molecule 1
17   17    1
SMALL
USER_CHARGES


@<TRIPOS>ATOM
      1 C1         -0.0434    0.2795    0.1393 C.3       1 UNK        -0.0650 
      2 C2          0.7370   -1.0184    0.1055 C.ar      1 UNK        -0.1150 
      3 C3          2.1468   -0.9957    0.1301 C.ar      1 UNK        -0.1150 
      4 C4          0.0576   -2.2511    0.0433 C.ar      1 UNK        -0.1150 
      5 C5          2.8903   -2.1994    0.0963 C.ar      1 UNK         0.0900 
      6 C6          0.7859   -3.4544    0.0092 C.ar      1 UNK        -0.1150 
      7 N7          4.3663   -2.1724    0.1231 N.pl3     1 UNK         0.6500 
      8 C8          2.1935   -3.4293    0.0360 C.ar      1 UNK        -0.1150 
      9 O9          4.9269   -1.0823    0.1759 O.co2     1 UNK        -0.3700 
     10 O10         4.9677   -3.2413    0.0913 O.co2     1 UNK        -0.3700 
     11 H11        -1.0326    0.1296    0.5731 H         1 UNK         0.0600 
     12 H12         0.4762    1.0290    0.7370 H         1 UNK         0.0600 
     13 H13        -0.1668    0.6703   -0.8709 H         1 UNK         0.0600 
     14 H14         2.6548   -0.0432    0.1748 H         1 UNK         0.1150 
     15 H15        -1.0222   -2.2779    0.0210 H         1 UNK         0.1150 
     16 H16         0.2643   -4.3991   -0.0379 H         1 UNK         0.1150 
     17 H17         2.7318   -4.3654    0.0089 H         1 UNK         0.1150 
@<TRIPOS>BOND
     1    1    2 1    
     2    1   11 1    
     3    1   12 1    
     4    1   13 1    
     5    2    3 ar   
     6    2    4 ar   
     7    3    5 ar   
     8    3   14 1    
     9    4    6 ar   
    10    4   15 1    
    11    5    7 1    
    12    5    8 ar   
    13    6    8 ar   
    14    6   16 1    
    15    7    9 2    
    16    7   10 1    
    17    8   17 1    
@<TRIPOS>SUBSTRUCTURE
     1 UNK         1 GROUP             0       ****    0 ROOT    
