@<TRIPOS>MOLECULE
title: molecule 1
16   16    1
SMALL
USER_CHARGES


@<TRIPOS>ATOM
      1 C1          4.1599   -2.1118    0.0945 C.ar      1 UNK         0.0900 
      2 C2          4.8629   -3.3382    0.0873 C.ar      1 UNK        -0.1150 
      3 C3          2.7451   -2.1360    0.0985 C.ar      1 UNK        -0.1150 
      4 N4          4.8902   -0.8283    0.0976 N.pl3     1 UNK         0.6500 
      5 C5          4.1659   -4.5601    0.0843 C.ar      1 UNK        -0.1150 
      6 C6          2.0327   -3.3587    0.0955 C.ar      1 UNK         0.0900 
      7 O7          6.1166   -0.8579    0.0940 O.co2     1 UNK        -0.3700 
      8 O8          4.2389    0.2113    0.1038 O.co2     1 UNK        -0.3700 
      9 C9          2.7593   -4.5712    0.0884 C.ar      1 UNK        -0.1150 
     10 N10         0.5560   -3.3688    0.0997 N.pl3     1 UNK         0.6500 
     11 O11        -0.0328   -2.2925    0.1059 O.co2     1 UNK        -0.3700 
     12 O12        -0.0174   -4.4533    0.0969 O.co2     1 UNK        -0.3700 
     13 H13         5.9431   -3.3540    0.0841 H         1 UNK         0.1150 
     14 H14         2.1988   -1.2041    0.1039 H         1 UNK         0.1150 
     15 H15         4.7121   -5.4919    0.0789 H         1 UNK         0.1150 
     16 H16         2.2453   -5.5214    0.0859 H         1 UNK         0.1150 
@<TRIPOS>BOND
     1    1    2 ar   
     2    1    3 ar   
     3    1    4 1    
     4    2    5 ar   
     5    2   13 1    
     6    3    6 ar   
     7    3   14 1    
     8    4    7 1    
     9    4    8 2    
    10    5    9 ar   
    11    5   15 1    
    12    6    9 ar   
    13    6   10 1    
    14    9   16 1    
    15   10   11 1    
    16   10   12 2    
@<TRIPOS>SUBSTRUCTURE
     1 UNK         1 GROUP             0       ****    0 ROOT    
