@<TRIPOS>MOLECULE
title: molecule 1
26   26    1
SMALL
USER_CHARGES


@<TRIPOS>ATOM
      1 C1          2.2937    0.1096    0.1203 C.2       1 UNK         0.0000 
      2 C2          1.6784   -1.0444    0.4319 C.2       1 UNK        -0.1150 
      3 C3          1.5070    1.3885   -0.1265 C.3       1 UNK        -0.1200 
      4 C4          3.8020    0.2342    0.0438 C.3       1 UNK        -0.1800 
      5 C5          0.2375   -1.1336    0.5410 C.2       1 UNK        -0.1150 
      6 C6          0.0037    1.1651   -0.4185 C.3       1 UNK        -0.1200 
      7 C7         -0.5709   -0.1245    0.1654 C.2       1 UNK         0.0000 
      8 C8         -2.0905   -0.2402    0.2475 C.3       1 UNK        -0.0600 
      9 C9         -2.6841    0.7146    1.2954 C.3       1 UNK        -0.1800 
     10 C10        -2.7582   -0.0644   -1.1255 C.3       1 UNK        -0.1800 
     11 H11         2.2684   -1.9307    0.6143 H         1 UNK         0.1150 
     12 H12         1.9572    1.9434   -0.9503 H         1 UNK         0.0600 
     13 H13         1.6176    2.0112    0.7619 H         1 UNK         0.0600 
     14 H14         4.1585    0.9570    0.7780 H         1 UNK         0.0600 
     15 H15         4.2917   -0.7202    0.2400 H         1 UNK         0.0600 
     16 H16         4.1040    0.5731   -0.9473 H         1 UNK         0.0600 
     17 H17        -0.1923   -2.0423    0.9366 H         1 UNK         0.1150 
     18 H18        -0.1461    1.1243   -1.4978 H         1 UNK         0.0600 
     19 H19        -0.5584    2.0284   -0.0643 H         1 UNK         0.0600 
     20 H20        -2.3199   -1.2529    0.5824 H         1 UNK         0.0600 
     21 H21        -3.7507    0.5314    1.4275 H         1 UNK         0.0600 
     22 H22        -2.2059    0.5782    2.2659 H         1 UNK         0.0600 
     23 H23        -2.5668    1.7596    1.0090 H         1 UNK         0.0600 
     24 H24        -3.8298   -0.2567   -1.0652 H         1 UNK         0.0600 
     25 H25        -2.6283    0.9472   -1.5110 H         1 UNK         0.0600 
     26 H26        -2.3410   -0.7576   -1.8567 H         1 UNK         0.0600 
@<TRIPOS>BOND
     1    1    2 2    
     2    1    3 1    
     3    1    4 1    
     4    2    5 1    
     5    2   11 1    
     6    3    6 1    
     7    3   12 1    
     8    3   13 1    
     9    4   14 1    
    10    4   15 1    
    11    4   16 1    
    12    5    7 2    
    13    5   17 1    
    14    6    7 1    
    15    6   18 1    
    16    6   19 1    
    17    7    8 1    
    18    8    9 1    
    19    8   10 1    
    20    8   20 1    
    21    9   21 1    
    22    9   22 1    
    23    9   23 1    
    24   10   24 1    
    25   10   25 1    
    26   10   26 1    
@<TRIPOS>SUBSTRUCTURE
     1 UNK         1 GROUP             0       ****    0 ROOT    
